version 2
run General-0-20200906-15:00:33-10617
attr configname General
attr datetime 20200906-15:00:33
attr experiment General
attr inifile omnetpp.ini
attr iterationvars ""
attr iterationvarsf ""
attr measurement ""
attr network TwoRouter
attr processid 10617
attr repetition 0
attr replication #0
attr resultdir results
attr runnumber 0
attr seedset 0
param **.fcsMode "\"computed\""
param **.crcMode "\"computed\""
param **.networkConfiguratorModule "\"\""
param *.router0.numEthInterfaces 1
param *.router0.eth[0].typename "\"ExtLowerEthernetInterface\""
param *.router0.eth[0].device "\"veth0\""
param *.router1.numEthInterfaces 1
param *.router1.eth[0].typename "\"ExtLowerEthernetInterface\""
param *.router1.eth[0].device "\"veth2\""
param *.router1.eth[0].namespace "\"host1\""

vector 0 TwoRouter.router0.ppp[0].ppp transmissionState:vector ETV
attr interpolationmode sample-hold
attr source transmissionStateChanged
attr title "tx state, vector"
vector 1 TwoRouter.router1.ppp[0].ppp transmissionState:vector ETV
attr interpolationmode sample-hold
attr source transmissionStateChanged
attr title "tx state, vector"
vector 2 TwoRouter.router0.eth[0].socket packetReceived:vector(packetBytes) ETV
attr interpolationmode none
attr source packetReceived
attr title "packets received, vector(packetBytes)"
vector 3 TwoRouter.router0.eth[0].socket packetSentFromUpper:vector(packetBytes) ETV
attr interpolationmode none
attr source packetSentToUpper
attr title "packets sent to higher layer, vector(packetBytes)"
vector 4 TwoRouter.router0.eth[0].encap decapPk:vector(packetBytes) ETV
attr interpolationmode none
attr source decapPk
attr title "packets decapsulated, vector(packetBytes)"
vector 5 TwoRouter.router0.ipv4.arp arpReplySent:vector(packetBytes) ETV
attr source arpReplySent
attr title "ARP replies sent, vector(packetBytes)"
vector 6 TwoRouter.router0.eth[0].encap encapPk:vector(packetBytes) ETV
attr interpolationmode none
attr source encapPk
attr title "packets encapsulated, vector(packetBytes)"
vector 7 TwoRouter.router0.eth[0].socket packetReceivedFromUpper:vector(packetBytes) ETV
attr interpolationmode none
attr source packetReceivedFromUpper
attr title "packets received from higher layer, vector(packetBytes)"
vector 8 TwoRouter.router0.eth[0].socket packetSent:vector(packetBytes) ETV
attr interpolationmode none
attr source packetSent
attr title "packets sent, vector(packetBytes)"
vector 9 TwoRouter.router0.ppp[0].ppp rcvdPkFromHl:vector(packetBytes) ETV
attr interpolationmode none
attr source packetReceivedFromUpper
attr title "packets received from higher layer, vector(packetBytes)"
vector 10 TwoRouter.router0.ppp[0].ppp.queue packetPushed:vector(packetBytes) ETV
attr interpolationmode none
attr title "packet pushed, vector(packetBytes)"
vector 11 TwoRouter.router0.ppp[0].ppp.queue queueLength:vector ETV
attr interpolationmode sample-hold
attr source "count(packetPushed) - count(packetPopped) - count(packetRemoved) - count(packetDropped)"
attr title "queue length, vector"
vector 12 TwoRouter.router0.ppp[0].ppp.queue packetPopped:vector(packetBytes) ETV
attr interpolationmode none
attr title "packet popped, vector(packetBytes)"
vector 13 TwoRouter.router0.ppp[0].ppp.queue queueingTime:vector ETV
attr interpolationmode none
attr source queueingTime(packetPopped)
attr title "queueing times, vector"
attr unit s
vector 14 TwoRouter.router0.ppp[0].ppp txPk:vector(packetBytes) ETV
attr interpolationmode none
attr source packetSentToLower
attr title "packets transmitted, vector(packetBytes)"
vector 15 TwoRouter.router1.ppp[0].ppp rxPkOk:vector(packetBytes) ETV
attr interpolationmode none
attr source rxPkOk
attr title "packets received OK, vector(packetBytes)"
vector 16 TwoRouter.router1.ppp[0].ppp passedUpPk:vector(packetBytes) ETV
attr interpolationmode none
attr source packetSentToUpper
attr title "packets passed to higher layer, vector(packetBytes)"
vector 17 TwoRouter.router1.ipv4.arp arpRequestSent:vector(packetBytes) ETV
attr source arpRequestSent
attr title "ARP request sent, vector(packetBytes)"
vector 18 TwoRouter.router1.eth[0].encap encapPk:vector(packetBytes) ETV
attr interpolationmode none
attr source encapPk
attr title "packets encapsulated, vector(packetBytes)"
vector 19 TwoRouter.router1.eth[0].socket packetReceivedFromUpper:vector(packetBytes) ETV
attr interpolationmode none
attr source packetReceivedFromUpper
attr title "packets received from higher layer, vector(packetBytes)"
vector 20 TwoRouter.router1.eth[0].socket packetSent:vector(packetBytes) ETV
attr interpolationmode none
attr source packetSent
attr title "packets sent, vector(packetBytes)"
vector 21 TwoRouter.router1.eth[0].socket packetReceived:vector(packetBytes) ETV
attr interpolationmode none
attr source packetReceived
attr title "packets received, vector(packetBytes)"
vector 22 TwoRouter.router1.eth[0].socket packetSentFromUpper:vector(packetBytes) ETV
attr interpolationmode none
attr source packetSentToUpper
attr title "packets sent to higher layer, vector(packetBytes)"
vector 23 TwoRouter.router1.eth[0].encap decapPk:vector(packetBytes) ETV
attr interpolationmode none
attr source decapPk
attr title "packets decapsulated, vector(packetBytes)"
vector 24 TwoRouter.router1.ppp[0].ppp rcvdPkFromHl:vector(packetBytes) ETV
attr interpolationmode none
attr source packetReceivedFromUpper
attr title "packets received from higher layer, vector(packetBytes)"
vector 25 TwoRouter.router1.ppp[0].ppp.queue packetPushed:vector(packetBytes) ETV
attr interpolationmode none
attr title "packet pushed, vector(packetBytes)"
vector 26 TwoRouter.router1.ppp[0].ppp.queue queueLength:vector ETV
attr interpolationmode sample-hold
attr source "count(packetPushed) - count(packetPopped) - count(packetRemoved) - count(packetDropped)"
attr title "queue length, vector"
vector 27 TwoRouter.router1.ppp[0].ppp.queue packetPopped:vector(packetBytes) ETV
attr interpolationmode none
attr title "packet popped, vector(packetBytes)"
vector 28 TwoRouter.router1.ppp[0].ppp.queue queueingTime:vector ETV
attr interpolationmode none
attr source queueingTime(packetPopped)
attr title "queueing times, vector"
attr unit s
vector 29 TwoRouter.router1.ppp[0].ppp txPk:vector(packetBytes) ETV
attr interpolationmode none
attr source packetSentToLower
attr title "packets transmitted, vector(packetBytes)"
vector 30 TwoRouter.router0.ppp[0].ppp rxPkOk:vector(packetBytes) ETV
attr interpolationmode none
attr source rxPkOk
attr title "packets received OK, vector(packetBytes)"
vector 31 TwoRouter.router0.ppp[0].ppp passedUpPk:vector(packetBytes) ETV
attr interpolationmode none
attr source packetSentToUpper
attr title "packets passed to higher layer, vector(packetBytes)"
vector 32 TwoRouter.router1.ipv4.arp arpReplySent:vector(packetBytes) ETV
attr source arpReplySent
attr title "ARP replies sent, vector(packetBytes)"
0	0	0	0
0	8	4.846247986	1
0	10	4.846253346	0
0	28	4.850981094	1
0	30	4.850985814	0
0	36	4.851940286	1
0	38	4.851954686	0
0	60	4.854882725	1
0	62	4.854887445	0
0	68	4.85578641	1
0	70	4.85580289	0
0	92	5.426003566	1
0	94	5.426022686	0
0	116	5.429613252	1
0	118	5.429616372	0
0	124	5.430374672	1
0	126	5.430377792	0
0	132	5.431074246	1
0	134	5.431077366	0
0	140	5.431839378	1
0	142	5.431842498	0
0	148	5.432477863	1
0	150	5.432495783	0
0	196	5.483335484	1
0	198	5.483340204	0
0	3060	8.428987453	1
0	3062	8.428994413	0
0	8356	13.901460049	1
0	8358	13.901467009	0
0	13422	19.051884446	1
0	13430	19.051891406	0
0	16188	21.866372655	1
0	16190	21.866379615	0
0	19884	25.617164744	1
0	19886	25.617171704	0
0	24894	30.811595248	1
0	24902	30.811602208	0
0	30680	36.695753562	1
0	30682	36.695760522	0
0	36540	42.715165867	1
0	36542	42.715172827	0
0	41756	47.998188901	1
0	41758	47.998195861	0
0	46326	52.710103481	1
0	46329	52.710110441	0
0	51668	58.139159946	1
0	51670	58.139166906	0
0	56832	63.418385882	1
0	56834	63.418392842	0
0	56858	63.454051265	1
0	56861	63.454068385	0
0	56888	63.458209377	1
0	56890	63.458214097	0
0	61858	68.518163163	1
0	61861	68.518170123	0
0	67112	73.930799625	1
0	67114	73.930806585	0
0	69976	76.817988194	1
0	69978	76.817995154	0
0	73320	80.285951315	1
0	73322	80.285956035	0
0	73336	81.473337042	1
0	73338	81.473342402	0
0	73346	81.474442816	1
0	73354	81.474448816	0
1	0	0	0
1	20	4.849474957	1
1	22	4.849480317	0
1	44	4.852938461	1
1	46	4.852943181	0
1	52	4.853844065	1
1	54	4.853864865	0
1	76	4.899356313	1
1	78	4.899361033	0
1	84	5.423932226	1
1	86	5.423987826	0
1	100	5.426753749	1
1	102	5.426758469	0
1	108	5.428473578	1
1	110	5.428496298	0
1	156	5.43923706	1
1	158	5.43925922	0
1	164	5.457442116	1
1	166	5.457446036	0
1	172	5.458394226	1
1	174	5.458407266	0
1	180	5.459171721	1
1	182	5.459199881	0
1	188	5.459804523	1
1	190	5.459817243	0
1	204	5.489425378	1
1	206	5.489429298	0
1	212	5.490440275	1
1	214	5.490463315	0
1	220	5.491489854	1
1	222	5.491528094	0
1	228	5.492335199	1
1	230	5.492379839	0
1	236	5.521402173	1
1	238	5.521406093	0
1	244	5.522405093	1
1	246	5.522440933	0
1	252	5.523322839	1
1	254	5.523382679	0
1	260	5.536282452	1
1	262	5.536343892	0
1	268	5.553404662	1
1	270	5.553408582	0
1	276	5.554270355	1
1	278	5.554325955	0
1	284	5.554983829	1
1	286	5.555078549	0
1	292	5.555850027	1
1	294	5.555939867	0
1	300	5.589482931	1
1	302	5.589486851	0
1	308	5.590315423	1
1	310	5.590345903	0
1	316	5.590926758	1
1	318	5.590972438	0
1	324	5.614230442	1
1	326	5.614273642	0
1	332	5.621420937	1
1	334	5.621424857	0
1	340	5.622769952	1
1	342	5.622801632	0
1	348	5.624036113	1
1	350	5.624092273	0
1	356	5.625366324	1
1	358	5.625417844	0
1	364	5.653445712	1
1	366	5.653449632	0
1	372	5.654808356	1
1	374	5.654846836	0
1	380	5.656038126	1
1	382	5.656083726	0
1	388	5.657595427	1
1	390	5.657649187	0
1	396	5.689402006	1
1	398	5.689405926	0
1	404	5.690730863	1
1	406	5.690768303	0
1	412	5.691975295	1
1	414	5.692025935	0
1	420	5.693235221	1
1	422	5.693294581	0
1	428	5.721441187	1
1	430	5.721445107	0
1	436	5.722758203	1
1	438	5.722799403	0
1	444	5.724012227	1
1	446	5.724062307	0
1	452	5.72556001	1
1	454	5.72561129	0
1	460	5.753458157	1
1	462	5.753462077	0
1	468	5.755098581	1
1	470	5.755138901	0
1	476	5.756531976	1
1	478	5.756582936	0
1	484	5.757838486	1
1	486	5.757890406	0
1	492	5.785491266	1
1	494	5.785495186	0
1	500	5.786837218	1
1	502	5.786881938	0
1	508	5.788152719	1
1	510	5.788207359	0
1	516	5.790087872	1
1	518	5.790141632	0
1	524	5.821434013	1
1	526	5.821437933	0
1	532	5.8228055	1
1	534	5.82285038	0
1	540	5.824077835	1
1	542	5.824130635	0
1	548	5.825598137	1
1	550	5.825652297	0
1	556	5.85342606	1
1	558	5.85342998	0
1	564	5.854462396	1
1	566	5.854508316	0
1	572	5.85556698	1
1	574	5.85562186	0
1	580	5.856712557	1
1	582	5.856768397	0
1	588	5.885437629	1
1	590	5.885441549	0
1	596	5.886286853	1
1	598	5.886327493	0
1	604	5.886975815	1
1	606	5.887029895	0
1	612	5.887680997	1
1	614	5.887728917	0
1	620	5.921450491	1
1	622	5.921454411	0
1	628	5.92228161	1
1	630	5.92232825	0
1	636	5.923082305	1
1	638	5.923135665	0
1	644	5.924145403	1
1	646	5.924195723	0
1	652	5.953471029	1
1	654	5.953474949	0
1	660	5.954297949	1
1	662	5.954343469	0
1	668	5.955208421	1
1	670	5.955258981	0
1	676	5.956196548	1
1	678	5.956246308	0
1	684	5.985428129	1
1	686	5.985432049	0
1	692	5.986734797	1
1	694	5.986794957	0
1	700	5.987939395	1
1	702	5.987994275	0
1	708	5.988943582	1
1	710	5.988999422	0
1	716	6.017468449	1
1	718	6.017472369	0
1	724	6.018425382	1
1	726	6.018480742	0
1	732	6.019597541	1
1	734	6.019653061	0
1	740	6.020821158	1
1	742	6.020874278	0
1	748	6.053480098	1
1	750	6.053484018	0
1	756	6.054297792	1
1	758	6.054346512	0
1	764	6.054996573	1
1	766	6.055057053	0
1	772	6.10854445	1
1	774	6.10860333	0
1	780	6.109908445	1
1	782	6.109912365	0
1	788	6.110756603	1
1	790	6.110808123	0
1	796	6.111595938	1
1	798	6.111657858	0
1	804	6.112550898	1
1	806	6.112605458	0
1	812	6.117439437	1
1	814	6.117443357	0
1	820	6.118552924	1
1	822	6.118605404	0
1	828	6.119728118	1
1	830	6.119791958	0
1	836	6.120895881	1
1	838	6.120948841	0
1	844	6.153457947	1
1	846	6.153461867	0
1	852	6.154322776	1
1	854	6.154382616	0
1	860	6.155086846	1
1	862	6.155156366	0
1	868	6.155866939	1
1	870	6.155921739	0
1	876	6.185447846	1
1	878	6.185451766	0
1	884	6.186315617	1
1	886	6.186371537	0
1	892	6.187062377	1
1	894	6.187129657	0
1	900	6.187825803	1
1	902	6.187885003	0
1	908	6.217426046	1
1	910	6.217429966	0
1	916	6.218387065	1
1	918	6.218443545	0
1	924	6.219219449	1
1	926	6.219287689	0
1	932	6.220060542	1
1	934	6.220116862	0
1	940	6.249387628	1
1	942	6.249391548	0
1	948	6.250270935	1
1	950	6.250324535	0
1	956	6.251171177	1
1	958	6.251236377	0
1	964	6.25211604	1
1	966	6.25216524	0
1	972	6.285423795	1
1	974	6.285427715	0
1	980	6.28631433	1
1	982	6.28636937	0
1	988	6.287250493	1
1	990	6.287312013	0
1	996	6.288173593	1
1	998	6.288221673	0
1	1004	6.331659781	1
1	1006	6.331663701	0
1	1012	6.332486239	1
1	1014	6.332545199	0
1	1020	6.333168927	1
1	1022	6.333233407	0
1	1028	6.352040372	1
1	1030	6.352092372	0
1	1036	6.353073488	1
1	1038	6.353077408	0
1	1044	6.353773216	1
1	1046	6.353829936	0
1	1052	6.354641829	1
1	1054	6.354704949	0
1	1060	6.355542207	1
1	1062	6.355589247	0
1	1068	6.385413618	1
1	1070	6.385417538	0
1	1076	6.386323018	1
1	1078	6.386387738	0
1	1084	6.38703937	1
1	1086	6.38710097	0
1	1092	6.387746025	1
1	1094	6.387798745	0
1	1100	6.417401632	1
1	1102	6.417405552	0
1	1108	6.418316449	1
1	1110	6.418376129	0
1	1116	6.419033294	1
1	1118	6.419097694	0
1	1124	6.419858353	1
1	1126	6.419912833	0
1	1132	6.449420126	1
1	1134	6.449424046	0
1	1140	6.450335865	1
1	1142	6.450401225	0
1	1148	6.451182644	1
1	1150	6.451251684	0
1	1156	6.452111572	1
1	1158	6.452163892	0
1	1164	6.481396339	1
1	1166	6.481400259	0
1	1172	6.48255694	1
1	1174	6.48261558	0
1	1180	6.483490186	1
1	1182	6.483553626	0
1	1188	6.484181887	1
1	1190	6.484229487	0
1	1196	6.517413923	1
1	1198	6.517417843	0
1	1204	6.51830556	1
1	1206	6.51835692	0
1	1212	6.519124786	1
1	1214	6.519180146	0
1	1220	6.519927095	1
1	1222	6.519978535	0
1	1228	6.549418032	1
1	1230	6.549421952	0
1	1236	6.55098653	1
1	1238	6.55104581	0
1	1244	6.572459142	1
1	1246	6.572519462	0
1	1252	6.573259044	1
1	1254	6.573310004	0
1	1260	6.581422196	1
1	1262	6.581426116	0
1	1268	6.58259062	1
1	1270	6.58265182	0
1	1276	6.583800193	1
1	1278	6.583860033	0
1	1284	6.584988995	1
1	1286	6.585039075	0
1	1292	6.617476848	1
1	1294	6.617480768	0
1	1300	6.618299978	1
1	1302	6.618356458	0
1	1308	6.619046542	1
1	1310	6.619105662	0
1	1316	6.619801262	1
1	1318	6.619849342	0
1	1324	6.64946283	1
1	1326	6.64946675	0
1	1332	6.650280545	1
1	1334	6.650340705	0
1	1340	6.651017824	1
1	1342	6.651078304	0
1	1348	6.651841193	1
1	1350	6.651892393	0
1	1356	6.681485056	1
1	1358	6.681488976	0
1	1364	6.682316574	1
1	1366	6.682373054	0
1	1372	6.68299001	1
1	1374	6.68304417	0
1	1380	6.683653186	1
1	1382	6.683703506	0
1	1388	6.71342969	1
1	1390	6.71343361	0
1	1396	6.714259005	1
1	1398	6.714318205	0
1	1404	6.714939772	1
1	1406	6.714999772	0
1	1412	6.71563302	1
1	1414	6.7156863	0
1	1420	6.74210382	1
1	1422	6.74211302	0
1	1428	6.749364457	1
1	1430	6.749368377	0
1	1436	6.750337187	1
1	1438	6.750394147	0
1	1444	6.75109521	1
1	1446	6.75115665	0
1	1452	6.751844789	1
1	1454	6.751894949	0
1	1460	6.781368808	1
1	1462	6.781372728	0
1	1468	6.782384927	1
1	1470	6.782441167	0
1	1476	6.783145874	1
1	1478	6.783208194	0
1	1484	6.783916889	1
1	1486	6.783965289	0
1	1492	6.813394944	1
1	1494	6.813398864	0
1	1500	6.814622885	1
1	1502	6.814683765	0
1	1508	6.815801885	1
1	1510	6.815866925	0
1	1516	6.81693229	1
1	1518	6.81698581	0
1	1524	6.849119085	1
1	1526	6.849123005	0
1	1532	6.850273265	1
1	1534	6.850337825	0
1	1540	6.851757417	1
1	1542	6.851815977	0
1	1548	6.852823866	1
1	1550	6.852878106	0
1	1556	6.881379742	1
1	1558	6.881383662	0
1	1564	6.882502855	1
1	1566	6.882563655	0
1	1572	6.88360165	1
1	1574	6.88366269	0
1	1580	6.884699543	1
1	1582	6.884750583	0
1	1588	6.913413727	1
1	1590	6.913417647	0
1	1596	6.914553105	1
1	1598	6.914610225	0
1	1604	6.915645301	1
1	1606	6.915702741	0
1	1612	6.916695229	1
1	1614	6.916740829	0
1	1620	6.945398613	1
1	1622	6.945402533	0
1	1628	6.946626413	1
1	1630	6.946690013	0
1	1636	6.947778675	1
1	1638	6.947840915	0
1	1644	6.948515918	1
1	1646	6.948564318	0
1	1652	6.981450872	1
1	1654	6.981454792	0
1	1660	6.982416527	1
1	1662	6.982477807	0
1	1668	6.983110987	1
1	1670	6.983171227	0
1	1676	6.983788782	1
1	1678	6.983833102	0
1	1684	7.013401799	1
1	1686	7.013405719	0
1	1692	7.014428546	1
1	1694	7.014492306	0
1	1700	7.015380561	1
1	1702	7.015442001	0
1	1708	7.016058124	1
1	1710	7.016109084	0
1	1716	7.051695343	1
1	1718	7.051699263	0
1	1724	7.053097464	1
1	1726	7.053159144	0
1	1732	7.054564794	1
1	1734	7.054621114	0
1	1740	7.05613369	1
1	1742	7.05617913	0
1	1748	7.081371804	1
1	1750	7.081375724	0
1	1756	7.082444029	1
1	1758	7.082504509	0
1	1764	7.083587166	1
1	1766	7.083636126	0
1	1772	7.084350268	1
1	1774	7.084396668	0
1	1780	7.113371669	1
1	1782	7.113375589	0
1	1788	7.114558092	1
1	1790	7.114622892	0
1	1796	7.144153992	1
1	1798	7.144219272	0
1	1804	7.145510356	1
1	1806	7.145564356	0
1	1812	7.146599034	1
1	1814	7.146602954	0
1	1820	7.14737133	1
1	1822	7.14743341	0
1	1828	7.148254237	1
1	1830	7.148311437	0
1	1836	7.148980823	1
1	1838	7.149036263	0
1	1844	7.177405161	1
1	1846	7.177409081	0
1	1852	7.178246366	1
1	1854	7.178311086	0
1	1860	7.17901912	1
1	1862	7.17907576	0
1	1868	7.179864582	1
1	1870	7.179919542	0
1	1876	7.221210542	1
1	1878	7.221214462	0
1	1884	7.222438482	1
1	1886	7.222504962	0
1	1892	7.22383957	1
1	1894	7.22390605	0
1	1900	7.225177495	1
1	1902	7.225225255	0
1	1908	7.245395956	1
1	1910	7.245399876	0
1	1916	7.246257754	1
1	1918	7.246326074	0
1	1924	7.246980621	1
1	1926	7.247044301	0
1	1932	7.247698118	1
1	1934	7.247753238	0
1	1940	7.291694203	1
1	1942	7.291698123	0
1	1948	7.292687819	1
1	1950	7.292749499	0
1	1956	7.293362613	1
1	1958	7.293426853	0
1	1964	7.29400025	1
1	1966	7.29405441	0
1	1972	7.313524136	1
1	1974	7.313528056	0
1	1980	7.314701968	1
1	1982	7.314760368	0
1	1988	7.315927402	1
1	1990	7.315988122	0
1	1996	7.316749029	1
1	1998	7.316805509	0
1	2004	7.345416796	1
1	2006	7.345420716	0
1	2012	7.346353977	1
1	2014	7.346418377	0
1	2020	7.347080247	1
1	2022	7.347145127	0
1	2028	7.347828827	1
1	2030	7.347883307	0
1	2036	7.377396257	1
1	2038	7.377400177	0
1	2044	7.378316084	1
1	2046	7.378381764	0
1	2052	7.393595405	1
1	2054	7.393658605	0
1	2060	7.395181081	1
1	2062	7.395236921	0
1	2068	7.409366543	1
1	2070	7.409370463	0
1	2076	7.410663734	1
1	2078	7.410730294	0
1	2084	7.411710027	1
1	2086	7.411770187	0
1	2092	7.41254364	1
1	2094	7.412599	0
1	2100	7.445368481	1
1	2102	7.445372401	0
1	2108	7.446270932	1
1	2110	7.446342532	0
1	2116	7.447093485	1
1	2118	7.447158765	0
1	2124	7.447874911	1
1	2126	7.447930031	0
1	2132	7.477399845	1
1	2134	7.477403765	0
1	2140	7.478280854	1
1	2142	7.478345974	0
1	2148	7.479303448	1
1	2150	7.479361688	0
1	2156	7.480019532	1
1	2158	7.480070172	0
1	2164	7.531563568	1
1	2166	7.531567488	0
1	2172	7.532743303	1
1	2174	7.532801303	0
1	2180	7.533646421	1
1	2182	7.533713781	0
1	2188	7.534862218	1
1	2190	7.534918218	0
1	2196	7.541416178	1
1	2198	7.541420098	0
1	2204	7.542726754	1
1	2206	7.542796194	0
1	2212	7.544074408	1
1	2214	7.544134408	0
1	2220	7.544839271	1
1	2222	7.544888231	0
1	2228	7.577430196	1
1	2230	7.577434116	0
1	2236	7.578303526	1
1	2238	7.578370806	0
1	2244	7.579082903	1
1	2246	7.579145543	0
1	2252	7.579831699	1
1	2254	7.579884419	0
1	2260	7.609363682	1
1	2262	7.609367602	0
1	2268	7.610369847	1
1	2270	7.610434087	0
1	2276	7.611592207	1
1	2278	7.611648927	0
1	2284	7.612791292	1
1	2286	7.612842732	0
1	2292	7.641421785	1
1	2294	7.641425705	0
1	2300	7.642301979	1
1	2302	7.642369819	0
1	2308	7.643457676	1
1	2310	7.643523596	0
1	2316	7.644284152	1
1	2318	7.644331752	0
1	2324	7.677430149	1
1	2326	7.677434069	0
1	2332	7.6783536	1
1	2334	7.6784208	0
1	2340	7.679315632	1
1	2342	7.679371152	0
1	2348	7.68025144	1
1	2350	7.68029664	0
1	2356	7.709428199	1
1	2358	7.709432119	0
1	2364	7.710457485	1
1	2366	7.710522125	0
1	2372	7.711303569	1
1	2374	7.711364289	0
1	2380	7.712017857	1
1	2382	7.712062897	0
1	2388	7.74143642	1
1	2390	7.74144034	0
1	2396	7.742431453	1
1	2398	7.742495133	0
1	2404	7.743427343	1
1	2406	7.743486623	0
1	2412	7.744178723	1
1	2414	7.744221043	0
1	2420	7.773385228	1
1	2422	7.773389148	0
1	2428	7.774449613	1
1	2430	7.774515133	0
1	2436	7.775599752	1
1	2438	7.775661992	0
1	2444	7.776682336	1
1	2446	7.776722976	0
1	2452	7.809433326	1
1	2454	7.809437246	0
1	2460	7.810256468	1
1	2462	7.810319908	0
1	2468	7.81095641	1
1	2470	7.81102065	0
1	2476	7.811773778	1
1	2478	7.811818658	0
1	2484	7.841458926	1
1	2486	7.841462846	0
1	2492	7.842574202	1
1	2494	7.842641162	0
1	2500	7.843765769	1
1	2502	7.843826409	0
1	2508	7.844715383	1
1	2510	7.844763143	0
1	2516	7.873413184	1
1	2518	7.873417104	0
1	2524	7.874343927	1
1	2526	7.874409607	0
1	2532	7.875039248	1
1	2534	7.875100448	0
1	2540	7.875750157	1
1	2542	7.875798077	0
1	2548	7.909402006	1
1	2550	7.909405926	0
1	2556	7.910417433	1
1	2558	7.910493673	0
1	2564	7.911530974	1
1	2566	7.911605454	0
1	2572	7.912315788	1
1	2574	7.912369948	0
1	2580	7.941397525	1
1	2582	7.941401445	0
1	2588	7.942319818	1
1	2590	7.942391338	0
1	2596	7.943109159	1
1	2598	7.943181879	0
1	2604	7.943902693	1
1	2606	7.943950453	0
1	2612	7.973360792	1
1	2614	7.973364712	0
1	2620	7.974292779	1
1	2622	7.974359019	0
1	2628	7.974987026	1
1	2630	7.975055986	0
1	2636	7.97571815	1
1	2638	7.97576847	0
1	2644	8.011752964	1
1	2646	8.011756884	0
1	2652	8.013099638	1
1	2654	8.013162278	0
1	2660	8.014378964	1
1	2662	8.014442484	0
1	2668	8.015656961	1
1	2670	8.015705361	0
1	2676	8.041426244	1
1	2678	8.041430164	0
1	2684	8.04277465	1
1	2686	8.04283977	0
1	2692	8.043946536	1
1	2694	8.044006616	0
1	2700	8.044928547	1
1	2702	8.044979107	0
1	2708	8.073433284	1
1	2710	8.073437204	0
1	2716	8.074263274	1
1	2718	8.074330954	0
1	2724	8.075031742	1
1	2726	8.075095182	0
1	2732	8.076054981	1
1	2734	8.076108501	0
1	2740	8.105444163	1
1	2742	8.105448083	0
1	2748	8.106264409	1
1	2750	8.106328489	0
1	2756	8.107028722	1
1	2758	8.107093442	0
1	2764	8.107793143	1
1	2766	8.107839943	0
1	2772	8.141446559	1
1	2774	8.141450479	0
1	2780	8.142466694	1
1	2782	8.142531094	0
1	2788	8.143420692	1
1	2790	8.143477892	0
1	2796	8.144089749	1
1	2798	8.144142549	0
1	2804	8.17341596	1
1	2806	8.17341988	0
1	2812	8.174232078	1
1	2814	8.174296798	0
1	2820	8.20720016	1
1	2822	8.20726216	0
1	2828	8.208142105	1
1	2830	8.208195385	0
1	2836	8.208923415	1
1	2838	8.208927335	0
1	2844	8.20944289	1
1	2846	8.20951193	0
1	2852	8.210109785	1
1	2854	8.210169305	0
1	2860	8.210843747	1
1	2862	8.210895347	0
1	2868	8.251790413	1
1	2870	8.251794333	0
1	2876	8.252667374	1
1	2878	8.252732094	0
1	2884	8.253417669	1
1	2886	8.253477029	0
1	2892	8.254075202	1
1	2894	8.254121762	0
1	2900	8.27341205	1
1	2902	8.27341597	0
1	2908	8.274297229	1
1	2910	8.274361229	0
1	2916	8.275129249	1
1	2918	8.275188609	0
1	2924	8.275934444	1
1	2926	8.275985724	0
1	2932	8.305415233	1
1	2934	8.305419153	0
1	2940	8.306287868	1
1	2942	8.306351788	0
1	2948	8.307050836	1
1	2950	8.307110036	0
1	2956	8.307793798	1
1	2958	8.307840518	0
1	2964	8.337430448	1
1	2966	8.337434368	0
1	2972	8.338383534	1
1	2974	8.338447454	0
1	2980	8.339158242	1
1	2982	8.339220802	0
1	2988	8.33991411	1
1	2990	8.33996139	0
1	2996	8.37340162	1
1	2998	8.37340554	0
1	3004	8.374278865	1
1	3006	8.374343425	0
1	3012	8.37506584	1
1	3014	8.37512608	0
1	3020	8.37586009	1
1	3022	8.37591073	0
1	3028	8.405407181	1
1	3030	8.405411101	0
1	3036	8.40628256	1
1	3038	8.40635656	0
1	3044	8.407107576	1
1	3046	8.407167736	0
1	3052	8.407886588	1
1	3054	8.407936028	0
1	3068	8.437460409	1
1	3070	8.437464329	0
1	3076	8.450272444	1
1	3078	8.450336604	0
1	3084	8.451180479	1
1	3086	8.451238479	0
1	3092	8.45189728	1
1	3094	8.45194152	0
1	3100	8.491581188	1
1	3102	8.491585108	0
1	3108	8.495577571	1
1	3110	8.495644771	0
1	3116	8.496877551	1
1	3118	8.496941871	0
1	3124	8.49806094	1
1	3126	8.49811054	0
1	3132	8.505462345	1
1	3134	8.505466265	0
1	3140	8.506340788	1
1	3142	8.506406068	0
1	3148	8.507032978	1
1	3150	8.507092498	0
1	3156	8.508408092	1
1	3158	8.508452892	0
1	3164	8.537412582	1
1	3166	8.537416502	0
1	3172	8.538230866	1
1	3174	8.538297346	0
1	3180	8.538924163	1
1	3182	8.538985523	0
1	3188	8.540483898	1
1	3190	8.540527258	0
1	3196	8.569398819	1
1	3198	8.569402739	0
1	3204	8.570224188	1
1	3206	8.570294748	0
1	3212	8.570927956	1
1	3214	8.570986036	0
1	3220	8.571946545	1
1	3222	8.571992785	0
1	3228	8.605424202	1
1	3230	8.605428122	0
1	3236	8.606275662	1
1	3238	8.606343342	0
1	3244	8.607069306	1
1	3246	8.607130826	0
1	3252	8.60783345	1
1	3254	8.60787529	0
1	3260	8.637400695	1
1	3262	8.637404615	0
1	3268	8.638235518	1
1	3270	8.638300398	0
1	3276	8.639001143	1
1	3278	8.639066103	0
1	3284	8.639933148	1
1	3286	8.639973788	0
1	3292	8.669411032	1
1	3294	8.669414952	0
1	3300	8.670521653	1
1	3302	8.670587253	0
1	3308	8.671624954	1
1	3310	8.671685914	0
1	3316	8.672449711	1
1	3318	8.672491391	0
1	3324	8.701407648	1
1	3326	8.701411568	0
1	3332	8.702505018	1
1	3334	8.702566618	0
1	3340	8.703225611	1
1	3342	8.703287211	0
1	3348	8.704003343	1
1	3350	8.704046783	0
1	3356	8.737403804	1
1	3358	8.737407724	0
1	3364	8.738607159	1
1	3366	8.738674039	0
1	3372	8.739894883	1
1	3374	8.739962803	0
1	3380	8.741081727	1
1	3382	8.741123327	0
1	3388	8.769403115	1
1	3390	8.769407035	0
1	3396	8.77028455	1
1	3398	8.77034807	0
1	3404	8.771028747	1
1	3406	8.771087947	0
1	3412	8.771795733	1
1	3414	8.771836773	0
1	3420	8.801413516	1
1	3422	8.801417436	0
1	3428	8.802239971	1
1	3430	8.802303251	0
1	3436	8.802972647	1
1	3438	8.803028647	0
1	3444	8.803700116	1
1	3446	8.803744916	0
1	3452	8.837400262	1
1	3454	8.837404182	0
1	3460	8.838228286	1
1	3462	8.838297646	0
1	3468	8.838968491	1
1	3470	8.839022731	0
1	3476	8.839673714	1
1	3478	8.839715154	0
1	3484	8.869432537	1
1	3486	8.869436457	0
1	3492	8.870281139	1
1	3494	8.870352659	0
1	3500	8.871027452	1
1	3502	8.871082812	0
1	3508	8.871734804	1
1	3510	8.871778244	0
1	3516	8.901402054	1
1	3518	8.901405974	0
1	3524	8.902239014	1
1	3526	8.902302934	0
1	3532	8.902976439	1
1	3534	8.903034999	0
1	3540	8.903721429	1
1	3542	8.903765269	0
1	3548	8.933414592	1
1	3550	8.933418512	0
1	3556	8.934237717	1
1	3558	8.934308037	0
1	3564	8.935062933	1
1	3566	8.935119733	0
1	3572	8.935791233	1
1	3574	8.935832193	0
1	3580	8.971437095	1
1	3582	8.971441015	0
1	3588	8.973269293	1
1	3590	8.973334253	0
1	3596	8.974551881	1
1	3598	8.974611881	0
1	3604	8.975900543	1
1	3606	8.975946623	0
1	3612	9.001395142	1
1	3614	9.001399062	0
1	3620	9.002432448	1
1	3622	9.002503008	0
1	3628	9.003299926	1
1	3630	9.003355126	0
1	3636	9.004001428	1
1	3638	9.004045828	0
1	3644	9.033457222	1
1	3646	9.033461142	0
1	3652	9.034278371	1
1	3654	9.034351091	0
1	3660	9.035024075	1
1	3662	9.035087355	0
1	3668	9.035761306	1
1	3670	9.035807306	0
1	3676	9.069439432	1
1	3678	9.069443352	0
1	3684	9.070313265	1
1	3686	9.070383505	0
1	3692	9.071063052	1
1	3694	9.071124172	0
1	3700	9.071798648	1
1	3702	9.071846488	0
1	3708	9.101462875	1
1	3710	9.101466795	0
1	3716	9.102343681	1
1	3718	9.102412641	0
1	3724	9.103047273	1
1	3726	9.103103753	0
1	3732	9.103747632	1
1	3734	9.103790112	0
1	3740	9.133468791	1
1	3742	9.133472711	0
1	3748	9.134287043	1
1	3750	9.134354323	0
1	3756	9.134978135	1
1	3758	9.135035655	0
1	3764	9.135681602	1
1	3766	9.135725122	0
1	3772	9.165455253	1
1	3774	9.165459173	0
1	3780	9.166279484	1
1	3782	9.166350684	0
1	3788	9.167028705	1
1	3790	9.167085265	0
1	3796	9.167747051	1
1	3798	9.167787371	0
1	3804	9.2114644	1
1	3806	9.21146832	0
1	3812	9.212604453	1
1	3814	9.212678453	0
1	3820	9.213886883	1
1	3822	9.213948163	0
1	3828	9.214667981	1
1	3830	9.214713021	0
1	3836	9.23345875	1
1	3838	9.23346267	0
1	3844	9.261978318	1
1	3846	9.262054718	0
1	3852	9.263089045	1
1	3854	9.263150245	0
1	3860	9.26393899	1
1	3862	9.26398827	0
1	3868	9.265393392	1
1	3870	9.265397312	0
1	3876	9.266040879	1
1	3878	9.266108799	0
1	3884	9.266841106	1
1	3886	9.266900946	0
1	3892	9.267631601	1
1	3894	9.267677841	0
1	3900	9.301424493	1
1	3902	9.301428413	0
1	3908	9.302243218	1
1	3910	9.302313778	0
1	3916	9.302946833	1
1	3918	9.303003633	0
1	3924	9.303638963	1
1	3926	9.303682243	0
1	3932	9.333436284	1
1	3934	9.333440204	0
1	3940	9.334258443	1
1	3942	9.334322683	0
1	3948	9.334945353	1
1	3950	9.335007353	0
1	3956	9.335670771	1
1	3958	9.335714051	0
1	3964	9.365421626	1
1	3966	9.365425546	0
1	3972	9.366249984	1
1	3974	9.366315984	0
1	3980	9.366944933	1
1	3982	9.367003333	0
1	3988	9.367641102	1
1	3990	9.367680702	0
1	3996	9.397432252	1
1	3998	9.397436172	0
1	4004	9.398388636	1
1	4006	9.398456236	0
1	4012	9.399090947	1
1	4014	9.399153987	0
1	4020	9.399798346	1
1	4022	9.399842906	0
1	4028	9.451625231	1
1	4030	9.451629151	0
1	4036	9.452680447	1
1	4038	9.452744527	0
1	4044	9.453689271	1
1	4046	9.453747031	0
1	4052	9.454600605	1
1	4054	9.454641325	0
1	4060	9.465411348	1
1	4062	9.465415268	0
1	4068	9.46623402	1
1	4070	9.46630778	0
1	4076	9.466956987	1
1	4078	9.467014507	0
1	4084	9.467667249	1
1	4086	9.467712049	0
1	4092	9.497420085	1
1	4094	9.497424005	0
1	4100	9.510901822	1
1	4102	9.510963582	0
1	4108	9.512047675	1
1	4110	9.512100155	0
1	4116	9.512787006	1
1	4118	9.512828766	0
1	4124	9.533431798	1
1	4126	9.533435718	0
1	4132	9.534331954	1
1	4134	9.534398754	0
1	4140	9.535037582	1
1	4142	9.535094942	0
1	4148	9.535714762	1
1	4150	9.535757562	0
1	4156	9.565491771	1
1	4158	9.565495691	0
1	4164	9.566394203	1
1	4166	9.566463163	0
1	4172	9.567106285	1
1	4174	9.567169325	0
1	4180	9.567814927	1
1	4182	9.567857087	0
1	4188	9.597454842	1
1	4190	9.597458762	0
1	4196	9.598312869	1
1	4198	9.598379109	0
1	4204	9.599008727	1
1	4206	9.599066087	0
1	4212	9.599835508	1
1	4214	9.599877748	0
1	4220	9.629382104	1
1	4222	9.629386024	0
1	4228	9.630354464	1
1	4230	9.630415504	0
1	4236	9.631227847	1
1	4238	9.631283847	0
1	4244	9.631929076	1
1	4246	9.631966116	0
1	4252	9.665404336	1
1	4254	9.665408256	0
1	4260	9.666317976	1
1	4262	9.666391256	0
1	4268	9.667050902	1
1	4270	9.667119542	0
1	4276	9.69257548	1
1	4278	9.69262428	0
1	4284	9.697385406	1
1	4286	9.697389326	0
1	4292	9.698535472	1
1	4294	9.698602912	0
1	4300	9.699670564	1
1	4302	9.699738404	0
1	4308	9.70079046	1
1	4310	9.70083686	0
1	4316	9.729432068	1
1	4318	9.729435988	0
1	4324	9.73063377	1
1	4326	9.73069769	0
1	4332	9.731785156	1
1	4334	9.731850916	0
1	4340	9.732884162	1
1	4342	9.732927922	0
1	4348	9.765393008	1
1	4350	9.765396928	0
1	4356	9.766915702	1
1	4358	9.766983942	0
1	4364	9.768171793	1
1	4366	9.768240593	0
1	4372	9.769379819	1
1	4374	9.769425339	0
1	4380	9.797453622	1
1	4382	9.797457542	0
1	4388	9.798436659	1
1	4390	9.798501779	0
1	4396	9.799186568	1
1	4398	9.799256088	0
1	4404	9.799936364	1
1	4406	9.799981964	0
1	4412	9.829419754	1
1	4414	9.829423674	0
1	4420	9.83034597	1
1	4422	9.83041277	0
1	4428	9.831256889	1
1	4430	9.831315369	0
1	4436	9.832033472	1
1	4438	9.832077792	0
1	4444	9.861410898	1
1	4446	9.861414818	0
1	4452	9.862310715	1
1	4454	9.862377755	0
1	4460	9.863113219	1
1	4462	9.863179139	0
1	4468	9.863876991	1
1	4470	9.863924111	0
1	4476	9.897539061	1
1	4478	9.897542981	0
1	4484	9.898417332	1
1	4486	9.898486212	0
1	4492	9.899308988	1
1	4494	9.899376988	0
1	4500	9.900051795	1
1	4502	9.900101635	0
1	4508	9.931540691	1
1	4510	9.931544611	0
1	4516	9.932693973	1
1	4518	9.932758213	0
1	4524	9.933826046	1
1	4526	9.933896206	0
1	4532	9.934975199	1
1	4534	9.935027759	0
1	4540	9.961483963	1
1	4542	9.961487883	0
1	4548	9.962596747	1
1	4550	9.962658587	0
1	4556	9.963467652	1
1	4558	9.963544772	0
1	4564	9.964308351	1
1	4566	9.964361151	0
1	4572	9.997395564	1
1	4574	9.997399484	0
1	4580	9.998216295	1
1	4582	9.998284375	0
1	4588	9.998924035	1
1	4590	9.999000595	0
1	4596	9.999679075	1
1	4598	9.999731715	0
1	4604	10.029594424	1
1	4606	10.029598344	0
1	4612	10.030990678	1
1	4614	10.031051558	0
1	4620	10.03180587	1
1	4622	10.03188259	0
1	4628	10.032514458	1
1	4630	10.032572058	0
1	4636	10.061507463	1
1	4638	10.061511383	0
1	4644	10.062330062	1
1	4646	10.062391582	0
1	4652	10.063019256	1
1	4654	10.063094216	0
1	4660	10.064080053	1
1	4662	10.064136293	0
1	4668	10.093453778	1
1	4670	10.093457698	0
1	4676	10.094271297	1
1	4678	10.094332337	0
1	4684	10.094978565	1
1	4686	10.095059925	0
1	4692	10.095911472	1
1	4694	10.095968032	0
1	4700	10.12944021	1
1	4702	10.12944413	0
1	4708	10.130635102	1
1	4710	10.130694062	0
1	4716	10.131736159	1
1	4718	10.131808799	0
1	4724	10.132453469	1
1	4726	10.132506509	0
1	4732	10.171601538	1
1	4734	10.171605458	0
1	4740	10.173097002	1
1	4742	10.173156602	0
1	4748	10.174191819	1
1	4750	10.174271979	0
1	4756	10.175172378	1
1	4758	10.175224298	0
1	4764	10.19338998	1
1	4766	10.1933939	0
1	4772	10.194588897	1
1	4774	10.194647777	0
1	4780	10.195725332	1
1	4782	10.195793652	0
1	4788	10.196620396	1
1	4790	10.196672236	0
1	4796	10.229378167	1
1	4798	10.229382087	0
1	4804	10.230274471	1
1	4806	10.230332791	0
1	4812	10.230958175	1
1	4814	10.231036735	0
1	4820	10.231822662	1
1	4822	10.231875302	0
1	4828	10.261470841	1
1	4830	10.261474761	0
1	4836	10.262467393	1
1	4838	10.262524913	0
1	4844	10.263507991	1
1	4846	10.263578551	0
1	4852	10.264740955	1
1	4854	10.264794955	0
1	4860	10.293357771	1
1	4862	10.293361691	0
1	4868	10.322387759	1
1	4870	10.322451919	0
1	4876	10.323335609	1
1	4878	10.323401609	0
1	4884	10.324040249	1
1	4886	10.324092409	0
1	4892	10.325368912	1
1	4894	10.325372832	0
1	4900	10.326092018	1
1	4902	10.326157538	0
1	4908	10.326757617	1
1	4910	10.326826737	0
1	4916	10.327444191	1
1	4918	10.327492191	0
1	4924	10.361418832	1
1	4926	10.361422752	0
1	4932	10.362334475	1
1	4934	10.362392315	0
1	4940	10.363080916	1
1	4942	10.363149796	0
1	4948	10.363872584	1
1	4950	10.363922984	0
1	4956	10.411487166	1
1	4958	10.411491086	0
1	4964	10.412470611	1
1	4966	10.412539011	0
1	4972	10.413526329	1
1	4974	10.413596889	0
1	4980	10.414392849	1
1	4982	10.414445329	0
1	4988	10.425447068	1
1	4990	10.425450988	0
1	4996	10.426394784	1
1	4998	10.426460224	0
1	5004	10.427167927	1
1	5006	10.427232247	0
1	5012	10.427988406	1
1	5014	10.428031686	0
1	5020	10.461410877	1
1	5022	10.461414797	0
1	5028	10.462294435	1
1	5030	10.462354355	0
1	5036	10.462983016	1
1	5038	10.463048456	0
1	5044	10.463700353	1
1	5046	10.463746993	0
1	5052	10.493402231	1
1	5054	10.493406151	0
1	5060	10.494232257	1
1	5062	10.494295217	0
1	5068	10.494927841	1
1	5070	10.494992401	0
1	5076	10.495699284	1
1	5078	10.495743924	0
1	5084	10.525440838	1
1	5086	10.525444758	0
1	5092	10.526340747	1
1	5094	10.526401227	0
1	5100	10.527069362	1
1	5102	10.527135042	0
1	5108	10.527874044	1
1	5110	10.527917004	0
1	5116	10.557427547	1
1	5118	10.557431467	0
1	5124	10.577722541	1
1	5126	10.577784141	0
1	5132	10.579091742	1
1	5134	10.579159182	0
1	5140	10.580319039	1
1	5142	10.580367439	0
1	5148	10.593401775	1
1	5150	10.593405695	0
1	5156	10.594538586	1
1	5158	10.594600266	0
1	5164	10.595701225	1
1	5166	10.595766025	0
1	5172	10.596759415	1
1	5174	10.596809655	0
1	5180	10.625392501	1
1	5182	10.625396421	0
1	5188	10.626772229	1
1	5190	10.626837269	0
1	5196	10.652407037	1
1	5198	10.652466717	0
1	5204	10.653532176	1
1	5206	10.653584176	0
1	5212	10.657361788	1
1	5214	10.657365708	0
1	5220	10.658358446	1
1	5222	10.658421726	0
1	5228	10.659555858	1
1	5230	10.659620578	0
1	5236	10.660728917	1
1	5238	10.660775717	0
1	5244	10.69342022	1
1	5246	10.69342414	0
1	5252	10.694251655	1
1	5254	10.694317415	0
1	5260	10.69502636	1
1	5262	10.69509052	0
1	5268	10.69580017	1
1	5270	10.69584745	0
1	5276	10.725385483	1
1	5278	10.725389403	0
1	5284	10.726336586	1
1	5286	10.726400586	0
1	5292	10.727184952	1
1	5294	10.727249112	0
1	5300	10.728103811	1
1	5302	10.728145491	0
1	5308	10.75739891	1
1	5310	10.75740283	0
1	5316	10.758286297	1
1	5318	10.758353737	0
1	5324	10.759493501	1
1	5326	10.759552221	0
1	5332	10.760331229	1
1	5334	10.760375869	0
1	5340	10.789394985	1
1	5342	10.789398905	0
1	5348	10.790517676	1
1	5350	10.790585036	0
1	5356	10.791332494	1
1	5358	10.791395534	0
1	5364	10.792083037	1
1	5366	10.792127837	0
1	5372	10.825435572	1
1	5374	10.825439492	0
1	5380	10.827037053	1
1	5382	10.827098413	0
1	5388	10.827910271	1
1	5390	10.827970271	0
1	5396	10.828675322	1
1	5398	10.828724362	0
1	5404	10.857416118	1
1	5406	10.857420038	0
1	5412	10.858282965	1
1	5414	10.858353765	0
1	5420	10.859209291	1
1	5422	10.859278571	0
1	5428	10.860120645	1
1	5430	10.860166085	0
1	5436	10.891572736	1
1	5438	10.891576656	0
1	5444	10.892823498	1
1	5446	10.892885898	0
1	5452	10.894093151	1
1	5454	10.894153951	0
1	5460	10.894907988	1
1	5462	10.894950868	0
1	5468	10.925362986	1
1	5470	10.925366906	0
1	5476	10.926362553	1
1	5478	10.926427753	0
1	5484	10.927447015	1
1	5486	10.927515815	0
1	5492	10.928295716	1
1	5494	10.928339636	0
1	5500	10.957394022	1
1	5502	10.957397942	0
1	5508	10.958342405	1
1	5510	10.958408885	0
1	5516	10.95937662	1
1	5518	10.95943926	0
1	5524	10.960497988	1
1	5526	10.960541748	0
1	5532	10.989402795	1
1	5534	10.989406715	0
1	5540	10.990334457	1
1	5542	10.990400057	0
1	5548	10.991132688	1
1	5550	10.991197648	0
1	5556	10.99190157	1
1	5558	10.99194549	0
1	5564	11.021401587	1
1	5566	11.021405507	0
1	5572	11.022300269	1
1	5574	11.022365789	0
1	5580	11.023086987	1
1	5582	11.023148347	0
1	5588	11.023842476	1
1	5590	11.023885276	0
1	5596	11.0573981	1
1	5598	11.05740202	0
1	5604	11.058362589	1
1	5606	11.058431069	0
1	5612	11.059343931	1
1	5614	11.059409451	0
1	5620	11.06013362	1
1	5622	11.06017834	0
1	5628	11.089410898	1
1	5630	11.089414818	0
1	5636	11.091551695	1
1	5638	11.091614975	0
1	5644	11.092420857	1
1	5646	11.092480377	0
1	5652	11.093180723	1
1	5654	11.093222323	0
1	5660	11.131787324	1
1	5662	11.131791244	0
1	5668	11.133038012	1
1	5670	11.133104892	0
1	5676	11.133797337	1
1	5678	11.133855657	0
1	5684	11.13448833	1
1	5686	11.13452921	0
1	5692	11.157432749	1
1	5694	11.157436669	0
1	5700	11.158260893	1
1	5702	11.158329613	0
1	5708	11.159803424	1
1	5710	11.159862864	0
1	5716	11.160555285	1
1	5718	11.160597925	0
1	5724	11.189456688	1
1	5726	11.189460608	0
1	5732	11.190273494	1
1	5734	11.190339094	0
1	5740	11.191156828	1
1	5742	11.191215468	0
1	5748	11.192139422	1
1	5750	11.192182062	0
1	5756	11.221393876	1
1	5758	11.221397796	0
1	5764	11.222318914	1
1	5766	11.222380994	0
1	5772	11.223049862	1
1	5774	11.223112822	0
1	5780	11.223783325	1
1	5782	11.223826445	0
1	5788	11.253437942	1
1	5790	11.253441862	0
1	5796	11.254268851	1
1	5798	11.254336771	0
1	5804	11.255044906	1
1	5806	11.255112026	0
1	5812	11.255946317	1
1	5814	11.255989437	0
1	5820	11.289444326	1
1	5822	11.289448246	0
1	5828	11.290272744	1
1	5830	11.290337784	0
1	5836	11.291041484	1
1	5838	11.291103884	0
1	5844	11.292002334	1
1	5846	11.292043214	0
1	5852	11.321441491	1
1	5854	11.321445411	0
1	5860	11.322280115	1
1	5862	11.322345955	0
1	5868	11.322976174	1
1	5870	11.323039614	0
1	5876	11.323693369	1
1	5878	11.323732969	0
1	5884	11.371704002	1
1	5886	11.371707922	0
1	5892	11.402640306	1
1	5894	11.402706706	0
1	5900	11.403986019	1
1	5902	11.404051139	0
1	5908	11.404993807	1
1	5910	11.405036767	0
1	5916	11.40592585	1
1	5918	11.40592977	0
1	5924	11.406523716	1
1	5926	11.406592516	0
1	5932	11.407285439	1
1	5934	11.407351519	0
1	5940	11.408037922	1
1	5942	11.408084242	0
1	5948	11.42124715	1
1	5950	11.42125107	0
1	5956	11.422304518	1
1	5958	11.422374598	0
1	5964	11.423019584	1
1	5966	11.423077184	0
1	5972	11.42381524	1
1	5974	11.42386004	0
1	5980	11.453559547	1
1	5982	11.453563467	0
1	5988	11.454384505	1
1	5990	11.454451945	0
1	5996	11.455157053	1
1	5998	11.455220573	0
1	6004	11.455907171	1
1	6006	11.455952851	0
1	6012	11.485406087	1
1	6014	11.485410007	0
1	6020	11.486305486	1
1	6022	11.486367806	0
1	6028	11.48711983	1
1	6030	11.48717983	0
1	6036	11.487876342	1
1	6038	11.487916662	0
1	6044	11.521411194	1
1	6046	11.521415114	0
1	6052	11.522308947	1
1	6054	11.522378307	0
1	6060	11.523137434	1
1	6062	11.523200474	0
1	6068	11.523911008	1
1	6070	11.523955008	0
1	6076	11.553396929	1
1	6078	11.553400849	0
1	6084	11.554406963	1
1	6086	11.554472803	0
1	6092	11.555237301	1
1	6094	11.555300421	0
1	6100	11.556053158	1
1	6102	11.556095798	0
1	6108	11.585375698	1
1	6110	11.585379618	0
1	6116	11.586280035	1
1	6118	11.586345155	0
1	6124	11.587383118	1
1	6126	11.587447598	0
1	6132	11.588152225	1
1	6134	11.588193025	0
1	6140	11.617514845	1
1	6142	11.617518765	0
1	6148	11.635357329	1
1	6150	11.635425649	0
1	6156	11.636855179	1
1	6158	11.636916619	0
1	6164	11.638048387	1
1	6166	11.638093347	0
1	6172	11.653442755	1
1	6174	11.653446675	0
1	6180	11.654267105	1
1	6182	11.654332945	0
1	6188	11.654959023	1
1	6190	11.655020383	0
1	6196	11.655639915	1
1	6198	11.655683675	0
1	6204	11.685380805	1
1	6206	11.685384725	0
1	6212	11.686289133	1
1	6214	11.686363133	0
1	6220	11.687077155	1
1	6222	11.687135955	0
1	6228	11.687822446	1
1	6230	11.687868206	0
1	6236	11.717434716	1
1	6238	11.717438636	0
1	6244	11.718259286	1
1	6246	11.718327046	0
1	6252	11.718953533	1
1	6254	11.719010813	0
1	6260	11.719623976	1
1	6262	11.719667736	0
1	6268	11.753431328	1
1	6270	11.753435248	0
1	6276	11.754257931	1
1	6278	11.754326491	0
1	6284	11.754955963	1
1	6286	11.755017323	0
1	6292	11.755665061	1
1	6294	11.755708421	0
1	6300	11.785426023	1
1	6302	11.785429943	0
1	6308	11.786266568	1
1	6310	11.786334488	0
1	6316	11.786983914	1
1	6318	11.787045354	0
1	6324	11.787665393	1
1	6326	11.787712033	0
1	6332	11.817427443	1
1	6334	11.817431363	0
1	6340	11.818252745	1
1	6342	11.818317225	0
1	6348	11.818941448	1
1	6350	11.819006008	0
1	6356	11.819653496	1
1	6358	11.819697016	0
1	6364	11.851589307	1
1	6366	11.851593227	0
1	6372	11.852730504	1
1	6374	11.852800984	0
1	6380	11.853766431	1
1	6382	11.853828351	0
1	6388	11.854619052	1
1	6390	11.854668012	0
1	6396	11.88535961	1
1	6398	11.88536353	0
1	6404	11.886564408	1
1	6406	11.886630968	0
1	6412	11.887325755	1
1	6414	11.887384475	0
1	6420	11.888003186	1
1	6422	11.888044066	0
1	6428	11.917367668	1
1	6430	11.917371588	0
1	6436	11.918293627	1
1	6438	11.918361787	0
1	6444	11.919011152	1
1	6446	11.919072912	0
1	6452	11.919734226	1
1	6454	11.919779586	0
1	6460	11.949479469	1
1	6462	11.949483389	0
1	6468	11.950424163	1
1	6470	11.950492403	0
1	6476	11.951149077	1
1	6478	11.951209957	0
1	6484	11.951866882	1
1	6486	11.951910242	0
1	6492	11.985383652	1
1	6494	11.985387572	0
1	6500	11.986324166	1
1	6502	11.986397286	0
1	6508	11.987052069	1
1	6510	11.987113109	0
1	6516	11.987737051	1
1	6518	11.987777931	0
1	6524	12.017385997	1
1	6526	12.017389917	0
1	6532	12.018307253	1
1	6534	12.018377333	0
1	6540	12.019024521	1
1	6542	12.019090041	0
1	6548	12.019722221	1
1	6550	12.019765981	0
1	6556	12.049391107	1
1	6558	12.049395027	0
1	6564	12.050311977	1
1	6566	12.050383417	0
1	6572	12.051030691	1
1	6574	12.051093891	0
1	6580	12.051739501	1
1	6582	12.051783501	0
1	6588	12.091671752	1
1	6590	12.091675672	0
1	6596	12.092739606	1
1	6598	12.092809366	0
1	6604	12.093720192	1
1	6606	12.093783152	0
1	6612	12.094755018	1
1	6614	12.094795018	0
1	6620	12.117410496	1
1	6622	12.117414416	0
1	6628	12.118238894	1
1	6630	12.118308334	0
1	6636	12.118946629	1
1	6638	12.119006869	0
1	6644	12.119671136	1
1	6646	12.119709136	0
1	6652	12.149443708	1
1	6654	12.149447628	0
1	6660	12.150528852	1
1	6662	12.150606772	0
1	6668	12.151386476	1
1	6670	12.151452636	0
1	6676	12.152214284	1
1	6678	12.152251724	0
1	6684	12.181371656	1
1	6686	12.181375576	0
1	6692	12.1822074	1
1	6694	12.18227436	0
1	6700	12.183008182	1
1	6702	12.183072662	0
1	6708	12.183858608	1
1	6710	12.183896448	0
1	6716	12.217429282	1
1	6718	12.217433202	0
1	6724	12.218291744	1
1	6726	12.218357824	0
1	6732	12.219092936	1
1	6734	12.219165016	0
1	6740	12.219887817	1
1	6742	12.219931097	0
1	6748	12.249380127	1
1	6750	12.249384047	0
1	6756	12.250297344	1
1	6758	12.250369984	0
1	6764	12.251109645	1
1	6766	12.251186285	0
1	6772	12.251857917	1
1	6774	12.251901917	0
1	6780	12.281426635	1
1	6782	12.281430555	0
1	6788	12.282257093	1
1	6790	12.282323893	0
1	6796	12.283090825	1
1	6798	12.283172825	0
1	6804	12.283977498	1
1	6806	12.284030058	0
1	6812	12.300665691	1
1	6814	12.300674891	0
1	6820	12.332083117	1
1	6822	12.332087037	0
1	6828	12.333220654	1
1	6830	12.333280174	0
1	6836	12.334363436	1
1	6838	12.334445516	0
1	6844	12.335659052	1
1	6846	12.335714892	0
1	6852	12.349365873	1
1	6854	12.349369793	0
1	6860	12.350526316	1
1	6862	12.350582316	0
1	6868	12.351975286	1
1	6870	12.352057046	0
1	6876	12.353263393	1
1	6878	12.353322113	0
1	6884	12.381352945	1
1	6886	12.381356865	0
1	6892	12.382544538	1
1	6894	12.382592618	0
1	6900	12.3836802	1
1	6902	12.38375724	0
1	6908	12.384915485	1
1	6910	12.384968045	0
1	6916	12.413343639	1
1	6918	12.413347559	0
1	6924	12.414536575	1
1	6926	12.414593215	0
1	6932	12.4157378	1
1	6934	12.41581596	0
1	6940	12.416992848	1
1	6942	12.417044608	0
1	6948	12.449390649	1
1	6950	12.449394569	0
1	6956	12.450526313	1
1	6958	12.450580553	0
1	6964	12.451257137	1
1	6966	12.451326977	0
1	6972	12.451969821	1
1	6974	12.452023261	0
1	6980	12.481346122	1
1	6982	12.481350042	0
1	6988	12.482186666	1
1	6990	12.482240266	0
1	6996	12.482890048	1
1	6998	12.482958768	0
1	7004	12.483719337	1
1	7006	12.483767577	0
1	7012	12.513355925	1
1	7014	12.513359845	0
1	7020	12.514554804	1
1	7022	12.514620724	0
1	7028	12.515674582	1
1	7030	12.515742262	0
1	7036	12.516403212	1
1	7038	12.516450412	0
1	7044	12.545399147	1
1	7046	12.545403067	0
1	7052	12.546510416	1
1	7054	12.546571856	0
1	7060	12.572075021	1
1	7062	12.572145501	0
1	7068	12.573334404	1
1	7070	12.573383284	0
1	7076	12.581367412	1
1	7078	12.581371332	0
1	7084	12.582274414	1
1	7086	12.582341854	0
1	7092	12.583066059	1
1	7094	12.583134939	0
1	7100	12.584052627	1
1	7102	12.584100707	0
1	7108	12.613387818	1
1	7110	12.613391738	0
1	7116	12.614454751	1
1	7118	12.614518431	0
1	7124	12.615357429	1
1	7126	12.615423109	0
1	7132	12.61614449	1
1	7134	12.61619513	0
1	7140	12.645405644	1
1	7142	12.645409564	0
1	7148	12.646303324	1
1	7150	12.646362204	0
1	7156	12.647224712	1
1	7158	12.647290072	0
1	7164	12.648168063	1
1	7166	12.648215823	0
1	7172	12.681438809	1
1	7174	12.681442729	0
1	7180	12.682278158	1
1	7182	12.682342398	0
1	7188	12.683081449	1
1	7190	12.683144729	0
1	7196	12.684094354	1
1	7198	12.684142354	0
1	7204	12.713433149	1
1	7206	12.713437069	0
1	7212	12.714318351	1
1	7214	12.714382911	0
1	7220	12.715351432	1
1	7222	12.715414952	0
1	7228	12.71609559	1
1	7230	12.71613831	0
1	7236	12.745429603	1
1	7238	12.745433523	0
1	7244	12.746393462	1
1	7246	12.746457862	0
1	7252	12.747260964	1
1	7254	12.747322244	0
1	7260	12.748112426	1
1	7262	12.748157866	0
1	7268	12.777397431	1
1	7270	12.777401351	0
1	7276	12.778389462	1
1	7278	12.778454262	0
1	7284	12.779161151	1
1	7286	12.779229071	0
1	7292	12.779941109	1
1	7294	12.779987109	0
1	7300	12.81337462	1
1	7302	12.81337854	0
1	7308	12.814559342	1
1	7310	12.814622222	0
1	7316	12.815815116	1
1	7318	12.815882316	0
1	7324	12.817018371	1
1	7326	12.817065011	0
1	7332	12.845419239	1
1	7334	12.845423159	0
1	7340	12.846574222	1
1	7342	12.846644782	0
1	7348	12.847854613	1
1	7350	12.847920933	0
1	7356	12.849352669	1
1	7358	12.849399629	0
1	7364	12.877380061	1
1	7366	12.877383981	0
1	7372	12.878623364	1
1	7374	12.878691444	0
1	7380	12.879885513	1
1	7382	12.879953753	0
1	7388	12.881235022	1
1	7390	12.881284462	0
1	7396	12.913390613	1
1	7398	12.913394533	0
1	7404	12.91421209	1
1	7406	12.91427665	0
1	7412	12.914900242	1
1	7414	12.914965762	0
1	7420	12.91560882	1
1	7422	12.91565762	0
1	7428	12.945414794	1
1	7430	12.945418714	0
1	7436	12.946245173	1
1	7438	12.946307653	0
1	7444	12.946960134	1
1	7446	12.947033494	0
1	7452	12.947721444	1
1	7454	12.947771364	0
1	7460	12.977421658	1
1	7462	12.977425578	0
1	7468	12.978427876	1
1	7470	12.978494836	0
1	7476	12.979163731	1
1	7478	12.979233091	0
1	7484	12.979897978	1
1	7486	12.979950618	0
1	7492	13.009399009	1
1	7494	13.009402929	0
1	7500	13.010473739	1
1	7502	13.010534619	0
1	7508	13.011400675	1
1	7510	13.011469395	0
1	7516	13.012095461	1
1	7518	13.012145301	0
1	7524	13.051904412	1
1	7526	13.051908332	0
1	7532	13.053427422	1
1	7534	13.053492302	0
1	7540	13.054713017	1
1	7542	13.054781977	0
1	7548	13.055924012	1
1	7550	13.055972492	0
1	7556	13.077396886	1
1	7558	13.077400806	0
1	7564	13.078667342	1
1	7566	13.078733502	0
1	7572	13.080019633	1
1	7574	13.080086753	0
1	7580	13.081578661	1
1	7582	13.081622901	0
1	7588	13.109390603	1
1	7590	13.109394523	0
1	7596	13.11066455	1
1	7598	13.11072799	0
1	7604	13.112457858	1
1	7606	13.112521138	0
1	7612	13.113755021	1
1	7614	13.113795901	0
1	7620	13.145337965	1
1	7622	13.145341885	0
1	7628	13.146663036	1
1	7630	13.146729356	0
1	7636	13.148040028	1
1	7638	13.148095148	0
1	7644	13.149285562	1
1	7646	13.149331562	0
1	7652	13.177401802	1
1	7654	13.177405722	0
1	7660	13.178372156	1
1	7662	13.178434236	0
1	7668	13.179549757	1
1	7670	13.179615757	0
1	7676	13.180513227	1
1	7678	13.180560347	0
1	7684	13.209372887	1
1	7686	13.209376807	0
1	7692	13.210285017	1
1	7694	13.210349817	0
1	7700	13.21107883	1
1	7702	13.21114075	0
1	7708	13.21184081	1
1	7710	13.21188313	0
1	7716	13.24138785	1
1	7718	13.24139177	0
1	7724	13.242281727	1
1	7726	13.242349967	0
1	7732	13.243081652	1
1	7734	13.243145332	0
1	7740	13.243893958	1
1	7742	13.243938678	0
1	7748	13.291512269	1
1	7750	13.291516189	0
1	7756	13.29270913	1
1	7758	13.29277793	0
1	7764	13.293714423	1
1	7766	13.293771303	0
1	7772	13.294510014	1
1	7774	13.294554254	0
1	7780	13.309344128	1
1	7782	13.309348048	0
1	7788	13.310209726	1
1	7790	13.310278846	0
1	7796	13.311005353	1
1	7798	13.311062313	0
1	7804	13.311870461	1
1	7806	13.311910061	0
1	7812	13.341431613	1
1	7814	13.341435533	0
1	7820	13.34227386	1
1	7822	13.3423381	0
1	7828	13.342970607	1
1	7830	13.343029567	0
1	7836	13.343676006	1
1	7838	13.343718806	0
1	7844	13.377354719	1
1	7846	13.377358639	0
1	7852	13.378197335	1
1	7854	13.378265975	0
1	7860	13.378911632	1
1	7862	13.378975632	0
1	7868	13.379972069	1
1	7870	13.380013029	0
1	7876	13.409389627	1
1	7878	13.409393547	0
1	7884	13.410770602	1
1	7886	13.410840842	0
1	7892	13.411749846	1
1	7894	13.411813366	0
1	7900	13.412437921	1
1	7902	13.412481361	0
1	7908	13.441390767	1
1	7910	13.441394687	0
1	7916	13.442408842	1
1	7918	13.442472682	0
1	7924	13.443361719	1
1	7926	13.443420359	0
1	7932	13.444180514	1
1	7934	13.444223074	0
1	7940	13.473399472	1
1	7942	13.473403392	0
1	7948	13.474297519	1
1	7950	13.474363839	0
1	7956	13.475151991	1
1	7958	13.475213271	0
1	7964	13.476050132	1
1	7966	13.476088132	0
1	7972	13.531612521	1
1	7974	13.531616441	0
1	7980	13.5327354	1
1	7982	13.5328086	0
1	7988	13.533929379	1
1	7990	13.533984739	0
1	7996	13.535077399	1
1	7998	13.535112439	0
1	8004	13.541405568	1
1	8006	13.541409488	0
1	8012	13.542303214	1
1	8014	13.542376974	0
1	8020	13.543106982	1
1	8022	13.543169222	0
1	8028	13.543876354	1
1	8030	13.543915394	0
1	8036	13.573381853	1
1	8038	13.573385773	0
1	8044	13.574210157	1
1	8046	13.574280237	0
1	8052	13.574911272	1
1	8054	13.574973352	0
1	8060	13.575655027	1
1	8062	13.575693667	0
1	8068	13.609388932	1
1	8070	13.609392852	0
1	8076	13.61021169	1
1	8078	13.61028105	0
1	8084	13.610911778	1
1	8086	13.610971858	0
1	8092	13.611637986	1
1	8094	13.611679426	0
1	8100	13.641436049	1
1	8102	13.641439969	0
1	8108	13.642269408	1
1	8110	13.642336768	0
1	8116	13.643005315	1
1	8118	13.643071555	0
1	8124	13.643747424	1
1	8126	13.643789424	0
1	8132	13.673430122	1
1	8134	13.673434042	0
1	8140	13.674262223	1
1	8142	13.674330303	0
1	8148	13.67502372	1
1	8150	13.675087	0
1	8156	13.675758085	1
1	8158	13.675802165	0
1	8164	13.705433987	1
1	8166	13.705437907	0
1	8172	13.706260479	1
1	8174	13.706328159	0
1	8180	13.706989067	1
1	8182	13.707050667	0
1	8188	13.707718186	1
1	8190	13.707758106	0
1	8196	13.741324085	1
1	8198	13.741328005	0
1	8204	13.742095852	1
1	8206	13.742160812	0
1	8212	13.743018211	1
1	8214	13.743076371	0
1	8220	13.743805384	1
1	8222	13.743850744	0
1	8228	13.773485317	1
1	8230	13.773489237	0
1	8236	13.774530274	1
1	8238	13.774594834	0
1	8244	13.77577329	1
1	8246	13.77583649	0
1	8252	13.776934173	1
1	8254	13.776978413	0
1	8260	13.805416475	1
1	8262	13.805420395	0
1	8268	13.806241008	1
1	8270	13.806308928	0
1	8276	13.806937838	1
1	8278	13.807000558	0
1	8284	13.807634297	1
1	8286	13.807684297	0
1	8292	13.841408091	1
1	8294	13.841412011	0
1	8300	13.842235813	1
1	8302	13.842300293	0
1	8308	13.842935012	1
1	8310	13.842996212	0
1	8316	13.843612673	1
1	8318	13.843660433	0
1	8324	13.873414251	1
1	8326	13.873418171	0
1	8332	13.874236445	1
1	8334	13.874298845	0
1	8340	13.874912814	1
1	8342	13.874975934	0
1	8348	13.875644808	1
1	8350	13.875697528	0
1	8364	13.905417765	1
1	8366	13.905421685	0
1	8372	13.906191035	1
1	8374	13.906254955	0
1	8380	13.906893025	1
1	8382	13.906952305	0
1	8388	13.907645087	1
1	8390	13.907697967	0
1	8396	13.937430335	1
1	8398	13.937434255	0
1	8404	13.938250365	1
1	8406	13.938313725	0
1	8412	13.939015379	1
1	8414	13.939083699	0
1	8420	13.939809267	1
1	8422	13.939862227	0
1	8428	13.973473748	1
1	8430	13.973477668	0
1	8436	13.974446711	1
1	8438	13.974507351	0
1	8444	13.975486339	1
1	8446	13.975550179	0
1	8452	14.014915521	1
1	8454	14.014971601	0
1	8460	14.016302747	1
1	8462	14.016306667	0
1	8468	14.016949999	1
1	8470	14.017021199	0
1	8476	14.017726276	1
1	8478	14.017793716	0
1	8484	14.018457078	1
1	8486	14.018517638	0
1	8492	14.037379433	1
1	8494	14.037383353	0
1	8500	14.038205716	1
1	8502	14.038265556	0
1	8508	14.03896576	1
1	8510	14.03903144	0
1	8516	14.03974029	1
1	8518	14.03980213	0
1	8524	14.073382393	1
1	8526	14.073386313	0
1	8532	14.074228344	1
1	8534	14.074291784	0
1	8540	14.075015448	1
1	8542	14.075080408	0
1	8548	14.075873371	1
1	8550	14.075935851	0
1	8556	14.105376544	1
1	8558	14.105380464	0
1	8564	14.106195939	1
1	8566	14.106260419	0
1	8572	14.106888558	1
1	8574	14.106955678	0
1	8580	14.107577775	1
1	8582	14.107641535	0
1	8588	14.137416112	1
1	8590	14.137420032	0
1	8596	14.138238649	1
1	8598	14.138305129	0
1	8604	14.138934363	1
1	8606	14.138998683	0
1	8612	14.139620037	1
1	8614	14.139682917	0
1	8620	14.169447495	1
1	8622	14.169451415	0
1	8628	14.170268578	1
1	8630	14.170326258	0
1	8636	14.170941406	1
1	8638	14.171007566	0
1	8644	14.171637825	1
1	8646	14.171706945	0
1	8652	14.205423398	1
1	8654	14.205427318	0
1	8660	14.206258576	1
1	8662	14.206321136	0
1	8668	14.207065353	1
1	8670	14.207127353	0
1	8676	14.207820035	1
1	8678	14.207888595	0
1	8684	14.251567823	1
1	8686	14.251571743	0
1	8692	14.252901045	1
1	8694	14.252962405	0
1	8700	14.253843573	1
1	8702	14.253906293	0
1	8708	14.255089901	1
1	8710	14.255163181	0
1	8716	14.269475649	1
1	8718	14.269479569	0
1	8724	14.270317128	1
1	8726	14.270379368	0
1	8732	14.271002505	1
1	8734	14.271066505	0
1	8740	14.271729882	1
1	8742	14.271800602	0
1	8748	14.305410109	1
1	8750	14.305414029	0
1	8756	14.306228511	1
1	8758	14.306289631	0
1	8764	14.306948969	1
1	8766	14.307011849	0
1	8772	14.307702998	1
1	8774	14.307772038	0
1	8780	14.337415988	1
1	8782	14.337419908	0
1	8788	14.338246443	1
1	8790	14.338306763	0
1	8796	14.339006029	1
1	8798	14.339071069	0
1	8804	14.339790466	1
1	8806	14.339864146	0
1	8812	14.369402664	1
1	8814	14.369406584	0
1	8820	14.370393814	1
1	8822	14.370453894	0
1	8828	14.371338712	1
1	8830	14.371405032	0
1	8836	14.372032868	1
1	8838	14.372106068	0
1	8844	14.401345264	1
1	8846	14.401349184	0
1	8852	14.402321165	1
1	8854	14.402375325	0
1	8860	14.40300185	1
1	8862	14.40306193	0
1	8868	14.403717112	1
1	8870	14.403790392	0
1	8876	14.437412114	1
1	8878	14.437416034	0
1	8884	14.438238542	1
1	8886	14.438300782	0
1	8892	14.438923954	1
1	8894	14.438980914	0
1	8900	14.439619055	1
1	8902	14.439691375	0
1	8908	14.491823881	1
1	8910	14.491827801	0
1	8916	14.493231594	1
1	8918	14.493289994	0
1	8924	14.49414308	1
1	8926	14.49420484	0
1	8932	14.495314584	1
1	8934	14.495383304	0
1	8940	14.501368874	1
1	8942	14.501372794	0
1	8948	14.5024877	1
1	8950	14.50254554	0
1	8956	14.503537539	1
1	8958	14.503595859	0
1	8964	14.504554157	1
1	8966	14.504623197	0
1	8972	14.537368889	1
1	8974	14.537372809	0
1	8980	14.538298807	1
1	8982	14.538348007	0
1	8988	14.538955369	1
1	8990	14.539020809	0
1	8996	14.539694773	1
1	8998	14.539770773	0
1	9004	14.569381366	1
1	9006	14.569385286	0
1	9012	14.570349077	1
1	9014	14.570406917	0
1	9020	14.571025907	1
1	9022	14.571089347	0
1	9028	14.571731638	1
1	9030	14.571803638	0
1	9036	14.601397768	1
1	9038	14.601401688	0
1	9044	14.602347682	1
1	9046	14.602439122	0
1	9052	14.603144803	1
1	9054	14.603257683	0
1	9060	14.603991904	1
1	9062	14.604106704	0
1	9068	14.604781631	1
1	9070	14.604803551	0
1	9076	14.633395066	1
1	9078	14.633398986	0
1	9084	14.634309824	1
1	9086	14.634366144	0
1	9092	14.634980614	1
1	9094	14.635037254	0
1	9100	14.635669051	1
1	9102	14.635733051	0
1	9108	14.669346328	1
1	9110	14.669350248	0
1	9116	14.670395546	1
1	9118	14.670454586	0
1	9124	14.67123259	1
1	9126	14.67128707	0
1	9132	14.672020698	1
1	9134	14.672103338	0
1	9140	14.701332852	1
1	9142	14.701336772	0
1	9148	14.702304537	1
1	9150	14.702360857	0
1	9156	14.702980597	1
1	9158	14.703035557	0
1	9164	14.703661426	1
1	9166	14.703745906	0
1	9172	14.733378149	1
1	9174	14.733382069	0
1	9180	14.734499709	1
1	9182	14.734555149	0
1	9188	14.735237266	1
1	9190	14.735297586	0
1	9196	14.736166987	1
1	9198	14.736253067	0
1	9204	14.769358823	1
1	9206	14.769362743	0
1	9212	14.770249102	1
1	9214	14.770301582	0
1	9220	14.798078348	1
1	9222	14.798136028	0
1	9228	14.799301864	1
1	9230	14.799386984	0
1	9236	14.801433466	1
1	9238	14.801437386	0
1	9244	14.802149212	1
1	9246	14.802198972	0
1	9252	14.802963626	1
1	9254	14.803017706	0
1	9260	14.803827715	1
1	9262	14.803917555	0
1	9268	14.833372615	1
1	9270	14.833376535	0
1	9276	14.834197303	1
1	9278	14.834243703	0
1	9284	14.834842911	1
1	9286	14.834896191	0
1	9292	14.835520298	1
1	9294	14.835606058	0
1	9300	14.865379934	1
1	9302	14.865383854	0
1	9308	14.866212906	1
1	9310	14.866260906	0
1	9316	14.866938484	1
1	9318	14.866987604	0
1	9324	14.867665714	1
1	9326	14.867746594	0
1	9332	14.901384659	1
1	9334	14.901388579	0
1	9340	14.902227151	1
1	9342	14.902310591	0
1	9348	14.903168424	1
1	9350	14.903283224	0
1	9356	14.904124854	1
1	9358	14.904129174	0
1	9364	14.904624558	1
1	9366	14.904739358	0
1	9372	14.905415312	1
1	9374	14.905450192	0
1	9380	14.93338613	1
1	9382	14.93339005	0
1	9388	14.934225124	1
1	9390	14.934279444	0
1	9396	14.93490145	1
1	9398	14.93495385	0
1	9404	14.935583296	1
1	9406	14.935657136	0
1	9412	14.97147313	1
1	9414	14.97147705	0
1	9420	14.972624673	1
1	9422	14.972676673	0
1	9428	14.973737089	1
1	9430	14.973785729	0
1	9436	14.974718739	1
1	9438	14.974798819	0
1	9444	14.997348032	1
1	9446	14.997351952	0
1	9452	14.998224753	1
1	9454	14.998278753	0
1	9460	14.998897099	1
1	9462	14.998953099	0
1	9468	14.9995873	1
1	9470	14.99965594	0
1	9476	15.033405086	1
1	9478	15.033409006	0
1	9484	15.034583219	1
1	9486	15.034633459	0
1	9492	15.035763035	1
1	9494	15.035814875	0
1	9500	15.036854714	1
1	9502	15.036921594	0
1	9508	15.065425083	1
1	9510	15.065429003	0
1	9516	15.066325772	1
1	9518	15.066404972	0
1	9524	15.067069671	1
1	9526	15.067148071	0
1	9532	15.067824599	1
1	9534	15.067918199	0
1	9540	15.097391327	1
1	9542	15.097395247	0
1	9548	15.098290793	1
1	9550	15.098344713	0
1	9556	15.099055329	1
1	9558	15.099107249	0
1	9564	15.099888603	1
1	9566	15.099958363	0
1	9572	15.133372676	1
1	9574	15.133376596	0
1	9580	15.134280534	1
1	9582	15.134332134	0
1	9588	15.135101872	1
1	9590	15.135159872	0
1	9596	15.135851872	1
1	9598	15.135919472	0
1	9604	15.165393642	1
1	9606	15.165397562	0
1	9612	15.166273549	1
1	9614	15.166331869	0
1	9620	15.167024517	1
1	9622	15.167074597	0
1	9628	15.167893507	1
1	9630	15.167965987	0
1	9636	15.211856477	1
1	9638	15.211860397	0
1	9644	15.213046467	1
1	9646	15.213097347	0
1	9652	15.214176419	1
1	9654	15.214229059	0
1	9660	15.215038062	1
1	9662	15.215101102	0
1	9668	15.229410081	1
1	9670	15.229414001	0
1	9676	15.230320764	1
1	9678	15.230369244	0
1	9684	15.23101152	1
1	9686	15.23106368	0
1	9692	15.231900295	1
1	9694	15.231965255	0
1	9700	15.265420457	1
1	9702	15.265424377	0
1	9708	15.266238431	1
1	9710	15.266286831	0
1	9716	15.266889674	1
1	9718	15.266942714	0
1	9724	15.267538959	1
1	9726	15.267605039	0
1	9732	15.297411177	1
1	9734	15.297415097	0
1	9740	15.298254375	1
1	9742	15.298304055	0
1	9748	15.298931713	1
1	9750	15.298984993	0
1	9756	15.299678942	1
1	9758	15.299743182	0
1	9764	15.329404349	1
1	9766	15.329408269	0
1	9772	15.33057165	1
1	9774	15.33062373	0
1	9780	15.3317359	1
1	9782	15.33178702	0
1	9788	15.332838029	1
1	9790	15.332902109	0
1	9796	15.365379401	1
1	9798	15.365383321	0
1	9804	15.366559489	1
1	9806	15.366565489	0
1	9812	15.367476269	1
1	9814	15.367480349	0
1	9820	15.368333276	1
1	9822	15.368448076	0
1	9828	15.369787162	1
1	9830	15.369897722	0
1	9836	15.371191706	1
1	9838	15.371306506	0
1	9844	15.372644384	1
1	9846	15.372759184	0
1	9852	15.374113352	1
1	9854	15.374178632	0
1	9860	15.375316636	1
1	9862	15.375431436	0
1	9868	15.376755688	1
1	9870	15.376870488	0
1	9876	15.378227635	1
1	9878	15.378342435	0
1	9884	15.379199362	1
1	9886	15.379247762	0
1	9892	15.397393074	1
1	9894	15.397396994	0
1	9900	15.398578638	1
1	9902	15.398613118	0
1	9908	15.399653223	1
1	9910	15.399685783	0
1	9916	15.400650845	1
1	9918	15.400684605	0
1	9924	15.429772203	1
1	9926	15.429776123	0
1	9932	15.430955455	1
1	9934	15.431001055	0
1	9940	15.452338652	1
1	9942	15.452385852	0
1	9948	15.453473884	1
1	9950	15.453524284	0
1	9956	15.461480963	1
1	9958	15.461484883	0
1	9964	15.462676908	1
1	9966	15.462729468	0
1	9972	15.463868107	1
1	9974	15.463914347	0
1	9980	15.464963841	1
1	9982	15.465024961	0
1	9988	15.497401239	1
1	9990	15.497405159	0
1	9996	15.498272531	1
1	9998	15.498325331	0
1	10004	15.499014024	1
1	10006	15.499064744	0
1	10012	15.499747569	1
1	10014	15.499807329	0
1	10020	15.529351858	1
1	10022	15.529355778	0
1	10028	15.530411792	1
1	10030	15.530462912	0
1	10036	15.531506308	1
1	10038	15.531557348	0
1	10044	15.532215347	1
1	10046	15.532280467	0
1	10052	15.561385556	1
1	10054	15.561389476	0
1	10060	15.562576191	1
1	10062	15.562624511	0
1	10068	15.563773992	1
1	10070	15.563823592	0
1	10076	15.564806359	1
1	10078	15.564872119	0
1	10084	15.597703075	1
1	10086	15.597706995	0
1	10092	15.598968342	1
1	10094	15.599015942	0
1	10100	15.599959687	1
1	10102	15.600011367	0
1	10108	15.600958357	1
1	10110	15.601025877	0
1	10116	15.629343094	1
1	10118	15.629347014	0
1	10124	15.630499377	1
1	10126	15.630548257	0
1	10132	15.631689612	1
1	10134	15.631740092	0
1	10140	15.632554108	1
1	10142	15.632616188	0
1	10148	15.661370046	1
1	10150	15.661373966	0
1	10156	15.662530715	1
1	10158	15.662578715	0
1	10164	15.663686516	1
1	10166	15.663732196	0
1	10172	15.664722342	1
1	10174	15.664789542	0
1	10180	15.69570878	1
1	10182	15.6957127	0
1	10188	15.696765692	1
1	10190	15.696815612	0
1	10196	15.6976767	1
1	10198	15.69772502	0
1	10204	15.698671669	1
1	10206	15.698733189	0
1	10212	15.729364031	1
1	10214	15.729367951	0
1	10220	15.730479916	1
1	10222	15.730525836	0
1	10228	15.731521725	1
1	10230	15.731568525	0
1	10236	15.732557205	1
1	10238	15.732627285	0
1	10244	15.761362206	1
1	10246	15.761366126	0
1	10252	15.762218467	1
1	10254	15.762269427	0
1	10260	15.762991311	1
1	10262	15.763043391	0
1	10268	15.763836327	1
1	10270	15.763900487	0
1	10276	15.79335169	1
1	10278	15.79335561	0
1	10284	15.794581458	1
1	10286	15.794627938	0
1	10292	15.795489871	1
1	10294	15.795535791	0
1	10300	15.796541068	1
1	10302	15.796604668	0
1	10308	15.829398819	1
1	10310	15.829402739	0
1	10316	15.830242206	1
1	10318	15.830289886	0
1	10324	15.830982322	1
1	10326	15.831031362	0
1	10332	15.831670922	1
1	10334	15.831735962	0
1	10340	15.861409164	1
1	10342	15.861413084	0
1	10348	15.862552007	1
1	10350	15.862600727	0
1	10356	15.863678386	1
1	10358	15.863731986	0
1	10364	15.864715934	1
1	10366	15.864780254	0
1	10372	15.892145064	1
1	10374	15.892154264	0
1	10380	15.89362868	1
1	10382	15.8936326	0
1	10388	15.894681696	1
1	10390	15.894731936	0
1	10396	15.895820699	1
1	10398	15.895871579	0
1	10404	15.896968078	1
1	10406	15.897032638	0
1	10412	15.931896222	1
1	10414	15.931900142	0
1	10420	15.933001416	1
1	10422	15.933047736	0
1	10428	15.934022237	1
1	10430	15.934072957	0
1	10436	15.934950502	1
1	10438	15.935014422	0
1	10444	15.961372865	1
1	10446	15.961376785	0
1	10452	15.962754552	1
1	10454	15.962801912	0
1	10460	15.963887147	1
1	10462	15.963939547	0
1	10468	15.964660507	1
1	10470	15.964720107	0
1	10476	15.993337206	1
1	10478	15.993341126	0
1	10484	15.994623468	1
1	10486	15.994670268	0
1	10492	15.995787321	1
1	10494	15.995834841	0
1	10500	16.038400513	1
1	10502	16.038462113	0
1	10508	16.039539175	1
1	10510	16.039543095	0
1	10516	16.040124137	1
1	10518	16.040166777	0
1	10524	16.040766923	1
1	10526	16.040822363	0
1	10532	16.041562852	1
1	10534	16.041626132	0
1	10540	16.061387518	1
1	10542	16.061391438	0
1	10548	16.062431704	1
1	10550	16.062480584	0
1	10556	16.0632284	1
1	10558	16.0632768	0
1	10564	16.063969851	1
1	10566	16.064032651	0
1	10572	16.093446966	1
1	10574	16.093450886	0
1	10580	16.094410436	1
1	10582	16.094456996	0
1	10588	16.095326805	1
1	10590	16.095378725	0
1	10596	16.096198033	1
1	10598	16.096259633	0
1	10604	16.125442542	1
1	10606	16.125446462	0
1	10612	16.126386183	1
1	10614	16.126431063	0
1	10620	16.127054015	1
1	10622	16.127105055	0
1	10628	16.127819605	1
1	10630	16.127883925	0
1	10636	16.171782009	1
1	10638	16.171785929	0
1	10644	16.173174017	1
1	10646	16.173225537	0
1	10652	16.174352366	1
1	10654	16.174403806	0
1	10660	16.175510561	1
1	10662	16.175576161	0
1	10668	16.193387399	1
1	10670	16.193391319	0
1	10676	16.194811352	1
1	10678	16.194861112	0
1	10684	16.196127944	1
1	10686	16.196190024	0
1	10692	16.197307803	1
1	10694	16.197377323	0
1	10700	16.225355736	1
1	10702	16.225359656	0
1	10708	16.22684507	1
1	10710	16.22689491	0
1	10716	16.227690272	1
1	10718	16.227747792	0
1	10724	16.228408403	1
1	10726	16.228474243	0
1	10732	16.257331975	1
1	10734	16.257335895	0
1	10740	16.258202989	1
1	10742	16.258253789	0
1	10748	16.258925516	1
1	10750	16.258981116	0
1	10756	16.27235826	1
1	10758	16.2724257	0
1	10764	16.293330313	1
1	10766	16.293334233	0
1	10772	16.294401761	1
1	10774	16.294448801	0
1	10780	16.295541274	1
1	10782	16.295592074	0
1	10788	16.296653027	1
1	10790	16.296715987	0
1	10796	16.325356464	1
1	10798	16.325360384	0
1	10804	16.326594535	1
1	10806	16.326642295	0
1	10812	16.327798526	1
1	10814	16.327851246	0
1	10820	16.328939632	1
1	10822	16.328999712	0
1	10828	16.357368094	1
1	10830	16.357372014	0
1	10836	16.358601119	1
1	10838	16.358649119	0
1	10844	16.359828583	1
1	10846	16.359882423	0
1	10852	16.360993491	1
1	10854	16.361055651	0
1	10860	16.411600711	1
1	10862	16.411604631	0
1	10868	16.412608965	1
1	10870	16.412659925	0
1	10876	16.413427357	1
1	10878	16.413478317	0
1	10884	16.414199235	1
1	10886	16.414262515	0
1	10892	16.425345611	1
1	10894	16.425349531	0
1	10900	16.426257566	1
1	10902	16.426305006	0
1	10908	16.426906213	1
1	10910	16.426956053	0
1	10916	16.427598742	1
1	10918	16.427664982	0
1	10924	16.457377341	1
1	10926	16.457381261	0
1	10932	16.458206038	1
1	10934	16.458254518	0
1	10940	16.458852535	1
1	10942	16.458907095	0
1	10948	16.459540541	1
1	10950	16.459601421	0
1	10956	16.489367214	1
1	10958	16.489371134	0
1	10964	16.490214495	1
1	10966	16.490264415	0
1	10972	16.491017137	1
1	10974	16.491069617	0
1	10980	16.491902375	1
1	10982	16.491963815	0
1	10988	16.525403534	1
1	10990	16.525407454	0
1	10996	16.526307737	1
1	10998	16.526363017	0
1	11004	16.526978937	1
1	11006	16.527034217	0
1	11012	16.527952745	1
1	11014	16.528011225	0
1	11020	16.557406649	1
1	11022	16.557410569	0
1	11028	16.558232371	1
1	11030	16.558283331	0
1	11036	16.558947712	1
1	11038	16.559001792	0
1	11044	16.559748441	1
1	11046	16.559808121	0
1	11052	16.589386213	1
1	11054	16.589390133	0
1	11060	16.590248875	1
1	11062	16.590307195	0
1	11068	16.590952248	1
1	11070	16.591006648	0
1	11076	16.591622437	1
1	11078	16.591678117	0
1	11084	16.621439095	1
1	11086	16.621443015	0
1	11092	16.622452913	1
1	11094	16.622502913	0
1	11100	16.623200498	1
1	11102	16.623255858	0
1	11108	16.624084109	1
1	11110	16.624137709	0
1	11116	16.65741405	1
1	11118	16.65741797	0
1	11124	16.658840147	1
1	11126	16.658887987	0
1	11132	16.660087862	1
1	11134	16.660139862	0
1	11140	16.661564671	1
1	11142	16.661618911	0
1	11148	16.689369964	1
1	11150	16.689373884	0
1	11156	16.690563085	1
1	11158	16.690620445	0
1	11164	16.691444424	1
1	11166	16.691502504	0
1	11172	16.692836084	1
1	11174	16.692889124	0
1	11180	16.721346087	1
1	11182	16.721350007	0
1	11188	16.722558352	1
1	11190	16.722611792	0
1	11196	16.723748826	1
1	11198	16.723802186	0
1	11204	16.725513938	1
1	11206	16.725569938	0
1	11212	16.757426952	1
1	11214	16.757430872	0
1	11220	16.758256578	1
1	11222	16.758303698	0
1	11228	16.75973707	1
1	11230	16.75979611	0
1	11236	16.760962097	1
1	11238	16.761009297	0
1	11244	16.789354638	1
1	11246	16.789358558	0
1	11252	16.790296096	1
1	11254	16.790352416	0
1	11260	16.791014282	1
1	11262	16.791074602	0
1	11268	16.792330622	1
1	11270	16.792377982	0
1	11276	16.821367601	1
1	11278	16.821371521	0
1	11284	16.822507813	1
1	11286	16.822566533	0
1	11292	16.823217242	1
1	11294	16.823278762	0
1	11300	16.824103663	1
1	11302	16.824150143	0
1	11308	16.85334554	1
1	11310	16.85334946	0
1	11316	16.854815788	1
1	11318	16.854875468	0
1	11324	16.855619733	1
1	11326	16.855674693	0
1	11332	16.85627496	1
1	11334	16.85631696	0
1	11340	16.891721451	1
1	11342	16.891725371	0
1	11348	16.892918397	1
1	11350	16.892977437	0
1	11356	16.89409646	1
1	11358	16.8941555	0
1	11364	16.895245095	1
1	11366	16.895289895	0
1	11372	16.921513134	1
1	11374	16.921517054	0
1	11380	16.922470457	1
1	11382	16.922530297	0
1	11388	16.923249206	1
1	11390	16.923300006	0
1	11396	16.924316491	1
1	11398	16.924363531	0
1	11404	16.953333222	1
1	11406	16.953337142	0
1	11412	16.954314214	1
1	11414	16.954369894	0
1	11420	16.955070908	1
1	11422	16.955126428	0
1	11428	16.955807988	1
1	11430	16.955857508	0
1	11436	16.989318703	1
1	11438	16.989322623	0
1	11444	16.990574007	1
1	11446	16.990630407	0
1	11452	16.991371192	1
1	11454	16.991433112	0
1	11460	16.992160248	1
1	11462	16.992211848	0
1	11468	17.021326198	1
1	11470	17.021330118	0
1	11476	17.022324578	1
1	11478	17.022382338	0
1	11484	17.023114303	1
1	11486	17.023175743	0
1	11492	17.023869661	1
1	11494	17.023923181	0
1	11500	17.053317235	1
1	11502	17.053321155	0
1	11508	17.054302395	1
1	11510	17.054361595	0
1	11516	17.05506729	1
1	11518	17.05512529	0
1	11524	17.086789718	1
1	11526	17.086838758	0
1	11532	17.087771984	1
1	11534	17.087775904	0
1	11540	17.08881206	1
1	11542	17.0888663	0
1	11548	17.089731531	1
1	11550	17.089790891	0
1	11556	17.090516421	1
1	11558	17.090570741	0
1	11564	17.131905247	1
1	11566	17.131909167	0
1	11572	17.13313112	1
1	11574	17.13318384	0
1	11580	17.134269851	1
1	11582	17.134329051	0
1	11588	17.135521106	1
1	11590	17.135584466	0
1	11596	17.153353961	1
1	11598	17.153357881	0
1	11604	17.154327046	1
1	11606	17.154379766	0
1	11612	17.155125151	1
1	11614	17.155183791	0
1	11620	17.155881403	1
1	11622	17.155939803	0
1	11628	17.185336285	1
1	11630	17.185340205	0
1	11636	17.186262247	1
1	11638	17.186310567	0
1	11644	17.186920395	1
1	11646	17.186980635	0
1	11652	17.18761536	1
1	11654	17.18767712	0
1	11660	17.221336188	1
1	11662	17.221340108	0
1	11668	17.222210746	1
1	11670	17.222260106	0
1	11676	17.222994626	1
1	11678	17.223052546	0
1	11684	17.223809347	1
1	11686	17.223869907	0
1	11692	17.253379808	1
1	11694	17.253383728	0
1	11700	17.254214802	1
1	11702	17.254269522	0
1	11708	17.254882142	1
1	11710	17.254941822	0
1	11716	17.255560955	1
1	11718	17.255626555	0
1	11724	17.285367556	1
1	11726	17.285371476	0
1	11732	17.286244697	1
1	11734	17.286295337	0
1	11740	17.286975674	1
1	11742	17.287034314	0
1	11748	17.287749487	1
1	11750	17.287813647	0
1	11756	17.317394323	1
1	11758	17.317398243	0
1	11764	17.31826539	1
1	11766	17.31832067	0
1	11772	17.31928586	1
1	11774	17.31934842	0
1	11780	17.335750237	1
1	11782	17.335812957	0
1	11788	17.371642506	1
1	11790	17.371646426	0
1	11796	17.372963545	1
1	11798	17.373017465	0
1	11804	17.373940544	1
1	11806	17.373997984	0
1	11812	17.374923267	1
1	11814	17.374993907	0
1	11820	17.385327291	1
1	11822	17.385331211	0
1	11828	17.386313245	1
1	11830	17.386369805	0
1	11836	17.38706116	1
1	11838	17.38711764	0
1	11844	17.387805976	1
1	11846	17.387872776	0
1	11852	17.417333445	1
1	11854	17.417337365	0
1	11860	17.418250059	1
1	11862	17.418308459	0
1	11868	17.419012417	1
1	11870	17.419068897	0
1	11876	17.420062456	1
1	11878	17.420129016	0
1	11884	17.453358043	1
1	11886	17.453361963	0
1	11892	17.454233279	1
1	11894	17.454286319	0
1	11900	17.454994015	1
1	11902	17.455052815	0
1	11908	17.45571524	1
1	11910	17.45577868	0
1	11916	17.485374423	1
1	11918	17.485378343	0
1	11924	17.486247697	1
1	11926	17.486298897	0
1	11932	17.486978514	1
1	11934	17.487031954	0
1	11940	17.487691789	1
1	11942	17.487759229	0
1	11948	17.517398769	1
1	11950	17.517402689	0
1	11956	17.518502714	1
1	11958	17.518558314	0
1	11964	17.519238336	1
1	11966	17.519293616	0
1	11972	17.519959365	1
1	11974	17.520020885	0
1	11980	17.549391613	1
1	11982	17.549395533	0
1	11988	17.550260266	1
1	11990	17.550307466	0
1	11996	17.550982326	1
1	11998	17.551039686	0
1	12004	17.551708153	1
1	12006	17.551774873	0
1	12012	17.585370839	1
1	12014	17.585374759	0
1	12020	17.586237947	1
1	12022	17.586288267	0
1	12028	17.58721676	1
1	12030	17.58726956	0
1	12036	17.613001466	1
1	12038	17.613070986	0
1	12044	17.617358375	1
1	12046	17.617362295	0
1	12052	17.618520723	1
1	12054	17.618572163	0
1	12060	17.619689208	1
1	12062	17.619745608	0
1	12068	17.620819593	1
1	12070	17.620883513	0
1	12076	17.649377006	1
1	12078	17.649380926	0
1	12084	17.650244589	1
1	12086	17.650295229	0
1	12092	17.650906083	1
1	12094	17.650961203	0
1	12100	17.651575194	1
1	12102	17.651646074	0
1	12108	17.685391127	1
1	12110	17.685395047	0
1	12116	17.686257884	1
1	12118	17.686309564	0
1	12124	17.686923893	1
1	12126	17.686983573	0
1	12132	17.687610955	1
1	12134	17.687683675	0
1	12140	17.717415264	1
1	12142	17.717419184	0
1	12148	17.718245484	1
1	12150	17.718301484	0
1	12156	17.718914778	1
1	12158	17.718972538	0
1	12164	17.719582968	1
1	12166	17.719650808	0
1	12172	17.749384223	1
1	12174	17.749388143	0
1	12180	17.750279235	1
1	12182	17.750334115	0
1	12188	17.751044086	1
1	12190	17.751101046	0
1	12196	17.751800808	1
1	12198	17.751873528	0
1	12204	17.781345761	1
1	12206	17.781349681	0
1	12212	17.782192216	1
1	12214	17.782246616	0
1	12220	17.783341089	1
1	12222	17.783394049	0
1	12228	17.784048495	1
1	12230	17.784123455	0
1	12236	17.817367169	1
1	12238	17.817371089	0
1	12244	17.818193923	1
1	12246	17.818246323	0
1	12252	17.818873692	1
1	12254	17.818936252	0
1	12260	17.819588731	1
1	12262	17.819661451	0
1	12268	17.852100993	1
1	12270	17.852104913	0
1	12276	17.85372479	1
1	12278	17.85377383	0
1	12284	17.855408539	1
1	12286	17.855464059	0
1	12292	17.857328498	1
1	12294	17.857400338	0
1	12300	17.881367327	1
1	12302	17.881371247	0
1	12308	17.882190702	1
1	12310	17.882242622	0
1	12316	17.882972538	1
1	12318	17.883026138	0
1	12324	17.883659309	1
1	12326	17.883735469	0
1	12332	17.917373954	1
1	12334	17.917377874	0
1	12340	17.918201993	1
1	12342	17.918253753	0
1	12348	17.918935024	1
1	12350	17.918992864	0
1	12356	17.919684856	1
1	12358	17.919758856	0
1	12364	17.949408899	1
1	12366	17.949412819	0
1	12372	17.950231339	1
1	12374	17.950280219	0
1	12380	17.950881217	1
1	12382	17.950936177	0
1	12388	17.951566891	1
1	12390	17.951643771	0
1	12396	17.981383083	1
1	12398	17.981387003	0
1	12404	17.9822056	1
1	12406	17.98225144	0
1	12412	17.982848763	1
1	12414	17.982904123	0
1	12420	17.98354604	1
1	12422	17.98362188	0
1	12428	18.013425263	1
1	12430	18.013429183	0
1	12436	18.01425824	1
1	12438	18.01430768	0
1	12444	18.015149485	1
1	12446	18.015203005	0
1	12452	18.015861279	1
1	12454	18.015939199	0
1	12460	18.049386348	1
1	12462	18.049390268	0
1	12468	18.050318567	1
1	12470	18.050372007	0
1	12476	18.050991099	1
1	12478	18.051046139	0
1	12484	18.051685187	1
1	12486	18.051755587	0
1	12492	18.095430164	1
1	12494	18.095434084	0
1	12500	18.096387589	1
1	12502	18.096436069	0
1	12508	18.097246493	1
1	12510	18.097300413	0
1	12516	18.0979824	1
1	12518	18.0980604	0
1	12524	18.113361936	1
1	12526	18.113365856	0
1	12532	18.1143213	1
1	12534	18.11436994	0
1	12540	18.115332319	1
1	12542	18.115381919	0
1	12548	18.150208199	1
1	12550	18.150289079	0
1	12556	18.151612788	1
1	12558	18.151616708	0
1	12564	18.152205431	1
1	12566	18.152254631	0
1	12572	18.152902882	1
1	12574	18.152954482	0
1	12580	18.153573306	1
1	12582	18.153647946	0
1	12588	18.181319757	1
1	12590	18.181323677	0
1	12596	18.182218198	1
1	12598	18.182266438	0
1	12604	18.182956886	1
1	12606	18.183007766	0
1	12612	18.183671491	1
1	12614	18.183748691	0
1	12620	18.213354334	1
1	12622	18.213358254	0
1	12628	18.21427409	1
1	12630	18.21432473	0
1	12636	18.215149865	1
1	12638	18.215199465	0
1	12644	18.215869307	1
1	12646	18.215952747	0
1	12652	18.245376465	1
1	12654	18.245380385	0
1	12660	18.246274978	1
1	12662	18.246325218	0
1	12668	18.2470256	1
1	12670	18.24707408	0
1	12676	18.247743247	1
1	12678	18.247828927	0
1	12684	18.281344531	1
1	12686	18.281348451	0
1	12692	18.282236001	1
1	12694	18.282283121	0
1	12700	18.282978803	1
1	12702	18.283030163	0
1	12708	18.283826686	1
1	12710	18.283909486	0
1	12716	18.331746082	1
1	12718	18.331750002	0
1	12724	18.333140325	1
1	12726	18.333185925	0
1	12732	18.334378414	1
1	12734	18.334428574	0
1	12740	18.335792059	1
1	12742	18.335871259	0
1	12748	18.345362521	1
1	12750	18.345366441	0
1	12756	18.346220958	1
1	12758	18.346268078	0
1	12764	18.346955804	1
1	12766	18.347000924	0
1	12772	18.347687228	1
1	12774	18.347766268	0
1	12780	18.38139223	1
1	12782	18.38139615	0
1	12788	18.382673603	1
1	12790	18.382722643	0
1	12796	18.383865302	1
1	12798	18.383915222	0
1	12804	18.399897038	1
1	12806	18.399970878	0
1	12812	18.413746776	1
1	12814	18.413750696	0
1	12820	18.414820882	1
1	12822	18.414869522	0
1	12828	18.415615823	1
1	12830	18.415663023	0
1	12836	18.41636204	1
1	12838	18.41643412	0
1	12844	18.445373788	1
1	12846	18.445377708	0
1	12852	18.446357163	1
1	12854	18.446405563	0
1	12860	18.447543459	1
1	12862	18.447595699	0
1	12868	18.448715918	1
1	12870	18.448785998	0
1	12876	18.477377057	1
1	12878	18.477380977	0
1	12884	18.478336232	1
1	12886	18.478386312	0
1	12892	18.479205923	1
1	12894	18.479259763	0
1	12900	18.480319218	1
1	12902	18.480390498	0
1	12908	18.513378879	1
1	12910	18.513382799	0
1	12916	18.51475885	1
1	12918	18.51481061	0
1	12924	18.515895334	1
1	12926	18.515949814	0
1	12932	18.516885363	1
1	12934	18.516954243	0
1	12940	18.545349964	1
1	12942	18.545353884	0
1	12948	18.546473667	1
1	12950	18.546529827	0
1	12956	18.572504473	1
1	12958	18.572557353	0
1	12964	18.573735932	1
1	12966	18.573809692	0
1	12972	18.577333342	1
1	12974	18.577337262	0
1	12980	18.578137251	1
1	12982	18.578192051	0
1	12988	18.578881264	1
1	12990	18.578934144	0
1	12996	18.579620458	1
1	12998	18.579693258	0
1	13004	18.613345433	1
1	13006	18.613349353	0
1	13012	18.61425537	1
1	13014	18.61430545	0
1	13020	18.614921866	1
1	13022	18.614976186	0
1	13028	18.615613438	1
1	13030	18.615683198	0
1	13036	18.645391796	1
1	13038	18.645395716	0
1	13044	18.64622308	1
1	13046	18.64626964	0
1	13052	18.647234937	1
1	13054	18.647285737	0
1	13060	18.648668884	1
1	13062	18.648744404	0
1	13068	18.677367318	1
1	13070	18.677371238	0
1	13076	18.678208139	1
1	13078	18.678262699	0
1	13084	18.678884103	1
1	13086	18.678937143	0
1	13092	18.679549553	1
1	13094	18.679624593	0
1	13100	18.709373349	1
1	13102	18.709377269	0
1	13108	18.710427678	1
1	13110	18.710483678	0
1	13116	18.711313017	1
1	13118	18.711367417	0
1	13124	18.712145313	1
1	13126	18.712214913	0
1	13132	18.745371104	1
1	13134	18.745375024	0
1	13140	18.74648548	1
1	13142	18.74654364	0
1	13148	18.747537874	1
1	13150	18.747589794	0
1	13156	18.748681798	1
1	13158	18.748750038	0
1	13164	18.777357678	1
1	13166	18.777361598	0
1	13172	18.778273295	1
1	13174	18.778325215	0
1	13180	18.779203688	1
1	13182	18.779255288	0
1	13188	18.779979577	1
1	13190	18.780044937	0
1	13196	18.811624295	1
1	13198	18.811628215	0
1	13204	18.812764136	1
1	13206	18.812814216	0
1	13212	18.813900967	1
1	13214	18.813956887	0
1	13220	18.81493989	1
1	13222	18.81499541	0
1	13228	18.841338856	1
1	13230	18.841342776	0
1	13236	18.842302512	1
1	13238	18.842354512	0
1	13244	18.84343758	1
1	13246	18.84349606	0
1	13252	18.844377925	1
1	13254	18.844432405	0
1	13260	18.877365858	1
1	13262	18.877369778	0
1	13268	18.878260846	1
1	13270	18.878315566	0
1	13276	18.879015507	1
1	13278	18.879066787	0
1	13284	18.879794178	1
1	13286	18.879851938	0
1	13292	18.909366932	1
1	13294	18.909370852	0
1	13300	18.910261435	1
1	13302	18.910314795	0
1	13308	18.91094722	1
1	13310	18.91100106	0
1	13316	18.912003497	1
[...]
31	67121	73.953175186	42
31	67129	73.954164827	1024
31	67137	73.955160717	685
31	67145	73.955961345	469
31	67153	73.985184686	42
31	67161	73.986445805	989
31	67169	74.012513209	760
31	67177	74.020593498	469
31	67185	74.021675149	42
31	67193	74.022666747	1002
31	67201	74.024131887	746
31	67209	74.025329684	473
31	67217	74.049202934	42
31	67225	74.050142828	976
31	67233	74.050876489	724
31	67241	74.051586471	466
31	67249	74.085177384	42
31	67257	74.086089732	961
31	67265	74.08689532	690
31	67273	74.087644386	526
31	67281	74.117192259	42
31	67289	74.118326	980
31	67297	74.119066004	705
31	67305	74.119893203	506
31	67313	74.149146693	42
31	67321	74.15025557	995
31	67329	74.151070756	691
31	67337	74.190158835	530
31	67345	74.19138809	42
31	67353	74.192380803	948
31	67361	74.193631798	768
31	67369	74.194815527	499
31	67377	74.21719768	42
31	67385	74.218078823	839
31	67393	74.218787224	696
31	67401	74.219709098	507
31	67409	74.25152989	42
31	67417	74.25292548	957
31	67425	74.25426695	786
31	67433	74.255599508	546
31	67441	74.281232988	42
31	67449	74.282500314	946
31	67457	74.283586084	765
31	67465	74.284345003	567
31	67473	74.317178989	42
31	67481	74.318097909	1001
31	67489	74.318903349	721
31	67497	74.319667362	525
31	67505	74.349183862	42
31	67513	74.350147943	903
31	67521	74.350862392	725
31	67529	74.35156737	505
31	67537	74.381160355	42
31	67545	74.382150695	865
31	67553	74.3828988	757
31	67561	74.383602628	515
31	67569	74.417154754	42
31	67577	74.418121489	1025
31	67585	74.418869314	672
31	67593	74.437363179	514
31	67601	74.449139599	42
31	67609	74.450037014	955
31	67617	74.450760193	702
31	67625	74.451440768	465
31	67633	74.491874695	42
31	67641	74.492944438	906
31	67649	74.493745496	716
31	67657	74.494480114	517
31	67665	74.513201979	42
31	67673	74.514246966	864
31	67681	74.515110922	710
31	67689	74.515818734	493
31	67697	74.54914507	42
31	67705	74.550328346	870
31	67713	74.551124142	644
31	67721	74.551910532	498
31	67729	74.581154364	42
31	67737	74.582094251	932
31	67745	74.582812035	735
31	67753	74.583505372	522
31	67761	74.613146599	42
31	67769	74.614278199	890
31	67777	74.61538	743
31	67785	74.616127482	508
31	67793	74.645206235	42
31	67801	74.646482371	938
31	67809	74.647804882	770
31	67817	74.649218694	508
31	67825	74.681197358	42
31	67833	74.682246081	854
31	67841	74.682956812	731
31	67849	74.683989795	571
31	67857	74.731836704	42
31	67865	74.733035114	879
31	67873	74.734189102	760
31	67881	74.73524997	540
31	67889	74.745148968	42
31	67897	74.746422209	870
31	67905	74.747724975	778
31	67913	74.748883466	551
31	67921	74.781161549	42
31	67929	74.782231623	905
31	67937	74.782990333	809
31	67945	74.783731997	588
31	67953	74.813127785	42
31	67961	74.814161999	856
31	67969	74.8149594	792
31	67977	74.815841925	611
31	67985	74.845151414	42
31	67993	74.846276784	830
31	68001	74.847171319	787
31	68009	74.848199547	547
31	68017	74.877151156	42
31	68025	74.878456554	875
31	68033	74.879776683	757
31	68041	74.881025385	578
31	68049	74.913146168	42
31	68057	74.914194166	767
31	68065	74.914972802	814
31	68073	74.915787471	527
31	68081	74.94517993	42
31	68089	74.946214681	922
31	68097	74.946970204	768
31	68105	74.973012429	544
31	68113	74.977182698	42
31	68121	74.978538108	936
31	68129	74.979903532	746
31	68137	74.981108026	598
31	68145	75.013168586	42
31	68153	75.014191285	68
31	68161	75.014859104	44
31	68169	75.015582223	1428
31	68177	75.016447956	1138
31	68185	75.017279708	1428
31	68193	75.018139711	1428
31	68201	75.018994536	1010
31	68209	75.01998796	1428
31	68217	75.020914259	1428
31	68225	75.022111894	1428
31	68233	75.022983844	385
31	68241	75.045176256	42
31	68249	75.046158289	274
31	68257	75.046840545	278
31	68265	75.04754014	228
31	68273	75.077154021	42
31	68281	75.07809375	388
31	68289	75.078783438	305
31	68297	75.079425293	206
31	68305	75.109175646	42
31	68313	75.110433276	641
31	68321	75.11128331	471
31	68329	75.111962596	300
31	68337	75.145164522	42
31	68345	75.146110091	707
31	68353	75.146876174	544
31	68361	75.147885302	384
31	68369	75.177168068	42
31	68377	75.17814641	781
31	68385	75.179186231	637
31	68393	75.180215315	460
31	68401	75.213375449	42
31	68409	75.214649612	817
31	68417	75.215924104	716
31	68425	75.217061882	491
31	68433	75.245253519	42
31	68441	75.246268279	871
31	68449	75.247078209	652
31	68457	75.2478715	508
31	68465	75.277155271	42
31	68473	75.278133766	838
31	68481	75.278847251	729
31	68489	75.279542795	578
31	68497	75.309158415	42
31	68505	75.310281894	762
31	68513	75.311119763	687
31	68521	75.311820391	511
31	68529	75.341196079	42
31	68537	75.342254315	893
31	68545	75.343064062	766
31	68553	75.34383998	519
31	68561	75.377186025	42
31	68569	75.378213548	809
31	68577	75.379017573	783
31	68585	75.379796562	517
31	68593	75.409177293	42
31	68601	75.41018565	820
31	68609	75.411560851	779
31	68617	75.477008796	543
31	68625	75.478404745	42
31	68633	75.479501948	774
31	68641	75.481095254	737
31	68649	75.482447824	510
31	68657	75.483108603	42
31	68665	75.483765464	877
31	68673	75.484483565	738
31	68681	75.485151394	574
31	68689	75.509149195	42
31	68697	75.510185647	840
31	68705	75.510985229	775
31	68713	75.511874599	593
31	68721	75.539590748	108
31	68729	75.541153456	42
31	68737	75.542114715	792
31	68745	75.543219544	784
31	68753	75.544410232	566
31	68761	75.573162804	42
31	68769	75.574060984	818
31	68777	75.574764629	827
31	68785	75.575643879	593
31	68793	75.609159105	42
31	68801	75.610412947	867
31	68809	75.611647112	739
31	68817	75.612821228	525
31	68825	75.641220138	42
31	68833	75.642174462	823
31	68841	75.642884932	742
31	68849	75.643601946	502
31	68857	75.691732738	42
31	68865	75.693636045	979
31	68873	75.713241181	750
31	68881	75.714079709	546
31	68889	75.714703521	42
31	68897	75.715933727	905
31	68905	75.716642158	737
31	68913	75.717295349	537
31	68921	75.741574991	42
31	68929	75.742654816	869
31	68937	75.743511107	752
31	68945	75.744166061	537
31	68953	75.773181911	42
31	68961	75.774114829	993
31	68969	75.77484083	681
31	68977	75.775573962	504
31	68985	75.80517709	42
31	68993	75.806073918	898
31	69001	75.806770199	669
31	69009	75.807417445	405
31	69017	75.841233733	42
31	69025	75.842444951	962
31	69033	75.843395839	756
31	69041	75.844146994	529
31	69049	75.873173643	42
31	69057	75.874136654	978
31	69065	75.874990167	741
31	69073	75.87594565	493
31	69081	75.905169478	42
31	69089	75.906134863	989
31	69097	75.906938594	728
31	69105	75.932364217	488
31	69113	75.94169955	42
31	69121	75.942810855	879
31	69129	75.943903106	784
31	69137	75.945136103	534
31	69145	75.973129824	42
31	69153	75.974215384	968
31	69161	75.975196447	796
31	69169	75.976046384	483
31	69177	76.005172411	42
31	69185	76.006170289	923
31	69193	76.006881747	656
31	69201	76.007559194	538
31	69209	76.037194335	42
31	69217	76.038204994	983
31	69225	76.038995001	749
31	69233	76.039742867	518
31	69241	76.073212295	42
31	69249	76.074144615	973
31	69257	76.074867965	732
31	69265	76.075655285	541
31	69273	76.105187068	42
31	69281	76.106089969	923
31	69289	76.106785979	666
31	69297	76.107451744	504
31	69305	76.137177924	42
31	69313	76.138173905	959
31	69321	76.139025211	756
31	69329	76.139886343	526
31	69337	76.173215873	42
31	69345	76.174112353	970
31	69353	76.174830568	735
31	69361	76.175574679	457
31	69369	76.205248838	42
31	69377	76.206189031	917
31	69385	76.207427778	752
31	69393	76.208245487	452
31	69401	76.237210843	42
31	69409	76.238215892	855
31	69417	76.238914353	683
31	69425	76.239590457	482
31	69433	76.269211164	42
31	69441	76.270105012	919
31	69449	76.270810662	718
31	69457	76.271475969	512
31	69465	76.305190813	42
31	69473	76.306304503	913
31	69481	76.30704304	737
31	69489	76.30776813	458
31	69497	76.337208958	42
31	69505	76.338102091	906
31	69513	76.338808736	724
31	69521	76.339501771	571
31	69529	76.369166127	42
31	69537	76.37006436	929
31	69545	76.370781091	742
31	69553	76.371475852	514
31	69561	76.411679934	42
31	69569	76.413158057	943
31	69577	76.414463437	749
31	69585	76.415641232	506
31	69593	76.437158948	42
31	69601	76.438080432	956
31	69609	76.438817301	766
31	69617	76.439854579	473
31	69625	76.469190515	42
31	69633	76.470090797	976
31	69641	76.471077006	738
31	69649	76.472090652	437
31	69657	76.501140628	42
31	69665	76.502176564	844
31	69673	76.503152693	700
31	69681	76.503851736	473
31	69689	76.537165163	42
31	69697	76.538071903	964
31	69705	76.538790366	716
31	69713	76.539512007	423
31	69721	76.569192726	42
31	69729	76.570103803	971
31	69737	76.570815032	694
31	69745	76.571481165	440
31	69753	76.601174911	42
31	69761	76.602086092	1024
31	69769	76.602834737	704
31	69777	76.603525034	484
31	69785	76.651607066	42
31	69793	76.653687091	990
31	69801	76.654983709	737
31	69809	76.655997877	500
31	69817	76.669175059	42
31	69825	76.670285083	958
31	69833	76.671019588	773
31	69841	76.671710548	460
31	69849	76.701374475	42
31	69857	76.702286462	961
31	69865	76.703005215	751
31	69873	76.703707493	492
31	69881	76.73315276	42
31	69889	76.734222041	999
31	69897	76.762742729	735
31	69905	76.7636266	489
31	69913	76.769172822	42
31	69921	76.770049746	967
31	69929	76.771064028	783
31	69937	76.771865979	522
31	69945	76.801168344	42
31	69953	76.802481813	933
31	69961	76.803824167	719
31	69969	76.80501599	444
31	69985	76.833161146	42
31	69993	76.834489668	860
31	70001	76.835803902	733
31	70009	76.836930337	435
31	70017	76.891910478	42
31	70025	76.893204553	979
31	70033	76.894542871	755
31	70041	76.895861259	478
31	70049	76.901157191	42
31	70057	76.902820639	1004
31	70065	76.904407577	671
31	70073	76.905686613	438
31	70081	76.933145506	42
31	70089	76.934115648	940
31	70097	76.935023581	699
31	70105	76.93584122	472
31	70113	76.965134131	42
31	70121	76.966416552	918
31	70129	76.967248555	682
31	70137	76.967982225	463
31	70145	77.001139955	42
31	70153	77.018989057	1004
31	70161	77.020466127	632
31	70169	77.021698691	466
31	70177	77.033197631	42
31	70185	77.034398215	1012
31	70193	77.035722448	691
31	70201	77.036842564	457
31	70209	77.065185244	42
31	70217	77.066087447	882
31	70225	77.06679665	725
31	70233	77.067487487	417
31	70241	77.101173425	42
31	70249	77.102189804	957
31	70257	77.102913063	723
31	70265	77.103621183	411
31	70273	77.13315146	42
31	70281	77.134318187	965
31	70289	77.135279484	753
31	70297	77.13627878	415
31	70305	77.165184694	42
31	70313	77.166119151	998
31	70321	77.167068836	746
31	70329	77.168109859	446
31	70337	77.197368523	42
31	70345	77.198684757	1004
31	70353	77.200058183	783
31	70361	77.20129251	417
31	70369	77.233133212	42
31	70377	77.234474521	1014
31	70385	77.235804891	710
31	70393	77.236967934	418
31	70401	77.265137971	42
31	70409	77.266907609	949
31	70417	77.26829424	764
31	70425	77.269519051	433
31	70433	77.297141884	42
31	70441	77.298042279	974
31	70449	77.298779176	828
31	70457	77.299454678	420
31	70465	77.333167677	42
31	70473	77.334174645	943
31	70481	77.334899476	768
31	70489	77.335650587	444
31	70497	77.371776912	42
31	70505	77.373081956	1014
31	70513	77.374469902	755
31	70521	77.375710718	663
31	70529	77.397160325	42
31	70537	77.398293224	968
31	70545	77.399045098	773
31	70553	77.399866943	525
31	70561	77.429144749	42
31	70569	77.430295611	985
31	70577	77.431402015	740
31	70585	77.43228327	550
31	70593	77.465180282	42
31	70601	77.466289607	1028
31	70609	77.467069018	788
31	70617	77.467873244	476
31	70625	77.49713608	42
31	70633	77.498335549	967
31	70641	77.499122347	713
31	70649	77.499933529	449
31	70657	77.529149298	42
31	70665	77.530830816	956
31	70673	77.531868459	718
31	70681	77.532613957	492
31	70689	77.565167471	42
31	70697	77.56647386	880
31	70705	77.567227318	694
31	70713	77.567921226	546
31	70721	77.611654259	42
31	70729	77.616038245	980
31	70737	77.617358036	739
31	70745	77.618556227	458
31	70753	77.629183514	42
31	70761	77.630373878	988
31	70769	77.631558422	804
31	70777	77.636472668	497
31	70785	77.661290456	42
31	70793	77.662407893	989
31	70801	77.663409607	747
31	70809	77.664356187	495
31	70817	77.697131237	42
31	70825	77.698302318	996
31	70833	77.699290407	755
31	70841	77.700198687	518
31	70849	77.729180698	42
31	70857	77.730500075	955
31	70865	77.731593047	742
31	70873	77.732660704	520
31	70881	77.761219227	42
31	70889	77.762779345	978
31	70897	77.764148447	793
31	70905	77.765289007	425
31	70913	77.797157087	42
31	70921	77.863607031	950
31	70929	77.865091172	819
31	70937	77.866446765	542
31	70945	77.867659859	42
31	70953	77.868692892	876
31	70961	77.869953963	794
31	70969	77.871260591	569
31	70977	77.8727062	42
31	70985	77.873729952	906
31	70993	77.875072009	805
31	71001	77.876381921	560
31	71009	77.89312704	42
31	71017	77.894548682	857
31	71025	77.895928228	856
31	71033	77.897208802	598
31	71041	77.92919532	42
31	71049	77.930430849	826
31	71057	77.93124706	768
31	71065	77.932063468	575
31	71073	77.9612914	42
31	71081	77.962505985	869
31	71089	77.963682687	772
31	71097	77.964870822	613
31	71105	77.993134971	42
31	71113	77.994374117	856
31	71121	77.99603069	804
31	71129	77.996836432	650
31	71137	78.029175971	42
31	71145	78.030445998	857
31	71153	78.031256859	772
31	71161	78.032008876	687
31	71169	78.061155522	42
31	71177	78.103891917	824
31	71185	78.105221323	754
31	71193	78.10640202	794
31	71201	78.107537299	42
31	71209	78.108457571	762
31	71217	78.109610365	754
31	71225	78.110634428	746
31	71233	78.125166229	42
31	71241	78.126406227	744
31	71249	78.127738898	755
31	71257	78.128798627	786
31	71265	78.161127731	42
31	71273	78.162331324	759
31	71281	78.163425223	757
31	71289	78.164516494	813
31	71297	78.193150801	42
31	71305	78.194436713	704
31	71313	78.195549471	721
31	71321	78.196619106	767
31	71329	78.225137342	42
31	71337	78.226405468	702
31	71345	78.227715693	746
31	71353	78.228783247	843
31	71361	78.261136315	42
31	71369	78.262471713	634
31	71377	78.263622857	662
31	71385	78.264728289	1009
31	71393	78.293188276	42
31	71401	78.294317621	533
31	71409	78.295090405	678
31	71417	78.296200662	1219
31	71425	78.331956369	42
31	71433	78.333502088	535
31	71441	78.334573759	588
31	71449	78.335791682	1273
31	71457	78.357155416	42
31	71465	78.35839185	470
31	71473	78.359516307	536
31	71481	78.360667145	1343
31	71489	78.39313059	42
31	71497	78.39423594	417
31	71505	78.394876076	556
31	71513	78.395619429	1378
31	71521	78.425167041	42
31	71529	78.426385036	442
31	71537	78.427189989	541
31	71545	78.428087123	1382
31	71553	78.457167183	42
31	71561	78.458586684	450
31	71569	78.459608158	491
31	71577	78.460337679	1106
31	71585	78.48915412	42
31	71593	78.490020722	471
31	71601	78.490724674	540
31	71609	78.491805564	846
31	71617	78.525183792	42
31	71625	78.526568066	526
31	71633	78.527230205	609
31	71641	78.527992343	762
31	71649	78.571974804	42
31	71657	78.573401219	543
31	71665	78.574878207	706
31	71673	78.57568389	831
31	71681	78.589243412	42
31	71689	78.590481994	556
31	71697	78.591350508	706
31	71705	78.592392778	809
31	71713	78.625214484	42
31	71721	78.626146512	610
31	71729	78.626817166	736
31	71737	78.627569856	787
31	71745	78.657152702	42
31	71753	78.658657689	632
31	71761	78.659707675	787
31	71769	78.660721559	770
31	71777	78.689170731	42
31	71785	78.690313201	636
31	71793	78.691745389	782
31	71801	78.692945129	782
31	71809	78.721138836	42
31	71817	78.722109773	600
31	71825	78.722797769	860
31	71833	78.723529498	802
31	71841	78.757172063	42
31	71849	78.758533632	555
31	71857	78.760030532	887
31	71865	78.760988583	768
31	71873	78.811697015	42
31	71881	78.812936107	575
31	71889	78.814073	905
31	71897	78.815185418	799
31	71905	78.821158017	42
31	71913	78.822094502	504
31	71921	78.822758369	888
31	71929	78.823477603	809
31	71937	78.857151226	42
31	71945	78.858089395	553
31	71953	78.858938085	901
31	71961	78.859724478	762
31	71969	78.889159402	42
31	71977	78.89004021	665
31	71985	78.890729014	975
31	71993	78.891487808	900
31	72001	78.921175429	42
31	72009	78.92204016	561
31	72017	78.922801781	728
31	72025	78.923489056	666
31	72033	78.95319136	42
31	72041	78.954077838	583
31	72049	78.954794621	704
31	72057	78.955489969	724
31	72065	78.989299221	42
31	72073	78.990445257	702
31	72081	78.991244528	812
31	72089	78.992295781	810
31	72097	79.021128956	42
31	72105	79.022250952	610
31	72113	79.022998635	744
31	72121	79.023854607	657
31	72129	79.053156369	42
31	72137	79.054208794	604
31	72145	79.055030306	706
31	72153	79.056174564	695
31	72161	79.089207313	42
31	72169	79.090075911	575
31	72177	79.090751764	734
31	72185	79.091612238	711
31	72193	79.121170961	42
31	72201	79.152070973	583
31	72209	79.152889275	649
31	72217	79.153803563	644
31	72225	79.15439567	42
31	72233	79.154949941	718
31	72241	79.155636591	790
31	72249	79.156281062	767
31	72257	79.185166938	42
31	72265	79.186042788	643
31	72273	79.186725204	770
31	72281	79.18742826	750
31	72289	79.221187571	42
31	72297	79.222066603	679
31	72305	79.222746152	750
31	72313	79.223423746	652
31	72321	79.253207641	42
31	72329	79.254115621	682
31	72337	79.255001238	674
31	72345	79.255714423	747
31	72353	79.291849545	42
31	72361	79.293241545	702
31	72369	79.294573576	706
31	72377	79.295801145	714
31	72385	79.321164644	42
31	72393	79.322041744	640
31	72401	79.322721644	814
31	72409	79.323389192	703
31	72417	79.353198035	42
31	72425	79.354075016	686
31	72433	79.354755932	825
31	72441	79.355454027	679
31	72449	79.385209966	42
31	72457	79.398602782	640
31	72465	79.399883332	879
31	72473	79.401019313	689
31	72481	79.417167877	42
31	72489	79.418253959	674
31	72497	79.419063209	939
31	72505	79.419860659	768
31	72513	79.453207999	42
31	72521	79.454076006	631
31	72529	79.454796741	829
31	72537	79.455518945	777
31	72545	79.485215419	42
31	72553	79.486122589	673
31	72561	79.486823267	859
31	72569	79.487517696	710
31	72577	79.531495698	42
31	72585	79.532720925	575
31	72593	79.53385801	868
31	72601	79.535413905	704
31	72609	79.553184904	42
31	72617	79.554060799	663
31	72625	79.554733315	813
31	72633	79.555423846	647
31	72641	79.585192849	42
31	72649	79.586073256	705
31	72657	79.586748999	791
31	72665	79.587429962	661
31	72673	79.617189748	42
31	72681	79.618064635	677
31	72689	79.618735237	742
31	72697	79.61940827	647
31	72705	79.649159643	42
31	72713	79.650834251	728
31	72721	79.652134187	765
31	72729	79.653309396	581
31	72737	79.685159126	42
31	72745	79.686038271	720
31	72753	79.686723343	800
31	72761	79.68739652	642
31	72769	79.717139834	42
31	72777	79.718367377	719
31	72785	79.719587986	870
31	72793	79.720796094	647
31	72801	79.773903354	42
31	72809	79.776329352	711
31	72817	79.777530275	820
31	72825	79.778704285	609
31	72833	79.785116931	42
31	72841	79.786220736	713
31	72849	79.787471023	685
31	72857	79.792268877	662
31	72865	79.817202558	42
31	72873	79.818089513	747
31	72881	79.818784032	769
31	72889	79.821650461	610
31	72897	79.849156287	42
31	72905	79.850304094	733
31	72913	79.85137853	746
31	72921	79.852906358	628
31	72929	79.881183667	42
31	72937	79.882163649	725
31	72945	79.882992458	796
31	72953	79.884172949	683
31	72961	79.917171001	42
31	72969	79.918410876	747
31	72977	79.919138721	710
31	72985	79.920032726	603
31	72993	79.949146343	42
31	73001	79.950259122	711
31	73009	79.951563609	775
31	73017	79.952541326	646
31	73025	79.98112235	42
31	73033	79.9821835	785
31	73041	79.98291785	790
31	73049	79.983897612	644
31	73057	80.017145661	42
31	73065	80.018410956	763
31	73073	80.019669511	763
31	73081	80.020841441	651
31	73089	80.049125721	42
31	73097	80.050102403	721
31	73105	80.050826221	834
31	73113	80.051548504	709
31	73121	80.081134389	42
31	73129	80.082171913	725
31	73137	80.082881436	865
31	73145	80.08376294	655
31	73153	80.113144708	42
31	73161	80.114139291	749
31	73169	80.114964279	812
31	73177	80.11570866	655
31	73185	80.149216958	42
31	73193	80.150109337	710
31	73201	80.150789285	815
31	73209	80.151491457	645
31	73217	80.18118242	42
31	73225	80.215426815	782
31	73233	80.216276249	735
31	73241	80.21693609	590
31	73249	80.217511504	42
31	73257	80.21806312	648
31	73265	80.218855093	761
31	73273	80.219603857	670
31	73281	80.251986729	42
31	73289	80.253461977	719
31	73297	80.254718828	744
31	73305	80.255732031	600
31	73313	80.284762537	52
31	73329	80.286664146	52
31	73348	81.474446576	40
31	73361	81.47610466	96
32	25219	31.10824493	28
32	52027	58.495354236	28

